REMARK  Name = *****
REMARK  8 active torsions:
REMARK  status: ('A' for Active; 'I' for Inactive)
REMARK    1  A    between atoms: C_8  and  C_9
REMARK    2  A    between atoms: C_9  and  C_19
REMARK    3  A    between atoms: C_10  and  C_11
REMARK    4  A    between atoms: C_11  and  C_12
REMARK    5  A    between atoms: S_21  and  O_22
REMARK    6  A    between atoms: C_33  and  S_34
REMARK    7  A    between atoms: C_35  and  C_36
REMARK    8  A    between atoms: C_36  and  O_37
REMARK                            x       y       z     vdW  Elec       q    Type
REMARK                         _______ _______ _______ _____ _____    ______ ____
ROOT
ATOM      1  O   UNL     1       1.408  -1.092  -2.210  0.00  0.00    -0.291 OA
ATOM      2  C   UNL     1       2.213  -0.570  -1.442  0.00  0.00    +0.202 C 
ATOM      3  C   UNL     1       3.083  -1.404  -0.547  0.00  0.00    +0.081 C 
ATOM      4  C   UNL     1       4.523  -1.184  -0.980  0.00  0.00    +0.016 C 
ATOM      5  C   UNL     1       4.998   0.307  -0.922  0.00  0.00    -0.000 C 
ATOM      6  C   UNL     1       5.070   0.784   0.631  0.00  0.00    +0.014 C 
ATOM      7  C   UNL     1       6.236   1.724   0.930  0.00  0.00    +0.010 C 
ATOM      8  C   UNL     1       7.314   1.494   1.728  0.00  0.00    +0.038 C 
ATOM      9  C   UNL     1       8.581   1.969   1.190  0.00  0.00    -0.008 A 
ATOM     10  C   UNL     1       9.332   3.047   1.739  0.00  0.00    +0.014 A 
ATOM     11  C   UNL     1      10.486   3.277   1.025  0.00  0.00    +0.047 A 
ATOM     12  S   UNL     1      10.664   2.198  -0.288  0.00  0.00    -0.082 S 
ATOM     13  C   UNL     1       9.190   1.384   0.068  0.00  0.00    +0.070 A 
ATOM     14  N   UNL     1       8.799   0.312  -0.737  0.00  0.00    -0.332 N 
ATOM     15  C   UNL     1       7.479  -0.129  -0.759  0.00  0.00    +0.110 C 
ATOM     16  H   UNL     1       9.469  -0.140  -1.298  0.00  0.00    +0.147 HD
ATOM     17  C   UNL     1       6.458   0.287  -1.539  0.00  0.00    +0.056 C 
ATOM     18  C   UNL     1       3.949   1.207  -1.727  0.00  0.00    +0.099 C 
ATOM     19  C   UNL     1       2.474   0.922  -1.342  0.00  0.00    +0.311 C 
ATOM     20  F   UNL     1       2.244   1.351  -0.070  0.00  0.00    -0.197 F 
ATOM     21  F   UNL     1       1.633   1.626  -2.139  0.00  0.00    -0.197 F 
ENDROOT
BRANCH   8  22
ATOM     22  C   UNL     1       7.358   0.549   2.879  0.00  0.00    -0.032 C 
ATOM     23  C   UNL     1       6.343   0.462   3.775  0.00  0.00    -0.020 C 
BRANCH  22  24
ATOM     24  C   UNL     1       8.582  -0.217   3.117  0.00  0.00    +0.130 C 
ATOM     25  C   UNL     1       9.371  -0.331   4.353  0.00  0.00    +0.116 C 
ATOM     26  I   UNL     1       9.046   0.674   6.116  0.00  0.00    -0.024 I 
ATOM     27  N   UNL     1      10.472  -1.106   4.228  0.00  0.00    -0.197 NA
ATOM     28  S   UNL     1      10.518  -1.643   2.689  0.00  0.00    +0.008 S 
ATOM     29  H   UNL     1      10.690  -2.967   2.431  0.00  0.00    +0.149 HD
ATOM     30  N   UNL     1       9.241  -0.903   2.095  0.00  0.00    -0.227 NA
ATOM     31  H   UNL     1       8.959  -0.924   1.152  0.00  0.00    +0.138 HD
BRANCH  28  32
ATOM     32  O   UNL     1      11.540  -0.480   2.248  0.00  0.00    -0.321 OA
ATOM     33  H   UNL     1      11.200   0.378   2.546  0.00  0.00    +0.228 HD
ENDBRANCH  28  32
ENDBRANCH  22  24
BRANCH  23  34
ATOM     34  C   UNL     1       5.109   1.325   3.919  0.00  0.00    +0.065 C 
BRANCH  34  35
ATOM     35  C   UNL     1       5.077   2.018   5.258  0.00  0.00    -0.008 A 
ATOM     36  C   UNL     1       4.278   1.542   6.305  0.00  0.00    +0.007 A 
ATOM     37  C   UNL     1       4.274   2.198   7.540  0.00  0.00    +0.000 A 
ATOM     38  C   UNL     1       5.067   3.328   7.740  0.00  0.00    +0.003 A 
ATOM     39  C   UNL     1       5.870   3.806   6.707  0.00  0.00    +0.038 A 
ATOM     40  C   UNL     1       5.870   3.151   5.481  0.00  0.00    +0.127 A 
ATOM     41  F   UNL     1       6.665   3.607   4.501  0.00  0.00    -0.205 F 
ENDBRANCH  34  35
ENDBRANCH  23  34
ENDBRANCH   8  22
BRANCH  17  42
ATOM     42  S   UNL     1       6.848   1.043  -3.061  0.00  0.00    -0.168 S 
ATOM     43  H   UNL     1       5.700   1.392  -3.702  0.00  0.00    +0.102 HD
ENDBRANCH  17  42
BRANCH  18  44
ATOM     44  C   UNL     1       4.209   2.719  -1.599  0.00  0.00    +0.166 C 
BRANCH  44  45
ATOM     45  O   UNL     1       3.519   3.447  -2.601  0.00  0.00    -0.395 OA
ATOM     46  H   UNL     1       3.829   3.166  -3.476  0.00  0.00    +0.209 HD
ENDBRANCH  44  45
ENDBRANCH  18  44
TORSDOF 8
