REMARK  Name = *****
REMARK  7 active torsions:
REMARK  status: ('A' for Active; 'I' for Inactive)
REMARK    1  A    between atoms: C_1  and  C_2
REMARK    2  A    between atoms: C_2  and  C_3
REMARK    3  A    between atoms: C_2  and  N_4
REMARK    4  A    between atoms: C_7  and  C_8
REMARK    5  A    between atoms: C_8  and  C_9
REMARK    6  A    between atoms: C_14  and  C_15
REMARK    7  A    between atoms: C_39  and  C_40
REMARK                            x       y       z     vdW  Elec       q    Type
REMARK                         _______ _______ _______ _____ _____    ______ ____
ROOT
ATOM      1  N   UNL     1       3.705   0.589   2.176  0.00  0.00    -0.284 NA
ATOM      2  C   UNL     1       3.905   0.133   3.493  0.00  0.00    +0.088 C 
ATOM      3  C   UNL     1       4.029   0.865   4.626  0.00  0.00    +0.037 C 
ATOM      4  C   UNL     1       5.066   0.349   5.475  0.00  0.00    +0.025 A 
ATOM      5  C   UNL     1       5.431  -0.872   6.010  0.00  0.00    +0.023 A 
ATOM      6  C   UNL     1       6.863  -0.885   6.041  0.00  0.00    +0.023 A 
ATOM      7  C   UNL     1       7.283   0.323   5.517  0.00  0.00    +0.025 A 
ATOM      8  C   UNL     1       8.572   0.821   4.945  0.00  0.00    +0.148 C 
ATOM      9  C   UNL     1       8.884   0.258   3.546  0.00  0.00    +0.219 C 
ATOM     10  O   UNL     1       9.740  -0.616   3.382  0.00  0.00    -0.275 OA
ATOM     11  N   UNL     1       8.289   0.789   2.416  0.00  0.00    -0.305 N 
ATOM     12  C   UNL     1       6.877   1.043   2.338  0.00  0.00    +0.124 C 
ATOM     13  C   UNL     1       6.092  -0.137   1.793  0.00  0.00    -0.028 C 
ATOM     14  C   UNL     1       6.493  -1.425   1.708  0.00  0.00    -0.019 C 
ATOM     15  C   UNL     1       6.507   2.153   1.412  0.00  0.00    -0.003 C 
ATOM     16  C   UNL     1       5.317   1.881   0.844  0.00  0.00    -0.006 C 
ATOM     17  H   UNL     1       8.853   1.001   1.638  0.00  0.00    +0.150 HD
ATOM     18  N   UNL     1       6.182   1.150   5.613  0.00  0.00    -0.361 N 
ATOM     19  H   UNL     1       6.191   2.125   5.753  0.00  0.00    +0.165 HD
ATOM     20  C   UNL     1       3.513   2.284   4.691  0.00  0.00    +0.020 C 
ATOM     21  C   UNL     1       4.831   0.490   1.189  0.00  0.00    +0.108 C 
ENDROOT
BRANCH   1  23
ATOM     22  C   UNL     1       1.920  -0.969   1.403  0.00  0.00    +0.024 C 
ATOM     23  C   UNL     1       2.362   0.487   1.542  0.00  0.00    +0.052 C 
ATOM     24  C   UNL     1       1.314   1.299   2.300  0.00  0.00    +0.024 C 
ENDBRANCH   1  23
BRANCH  14  25
ATOM     25  C   UNL     1       5.752  -2.552   1.042  0.00  0.00    +0.072 C 
BRANCH  25  26
ATOM     26  C   UNL     1       5.206  -3.570   1.978  0.00  0.00    +0.076 C 
ATOM     27  C   UNL     1       5.572  -4.042   3.164  0.00  0.00    +0.140 C 
ATOM     28  N   UNL     1       6.617  -3.810   3.999  0.00  0.00    -0.274 N 
ATOM     29  C   UNL     1       6.610  -4.546   5.159  0.00  0.00    +0.280 C 
ATOM     30  O   UNL     1       7.533  -4.390   5.901  0.00  0.00    -0.270 OA
ATOM     31  C   UNL     1       5.625  -5.442   5.458  0.00  0.00    +0.314 C 
ATOM     32  N   UNL     1       4.546  -5.734   4.604  0.00  0.00    -0.051 NA
ATOM     33  H   UNL     1       7.328  -3.162   3.788  0.00  0.00    +0.155 HD
ATOM     34  C   UNL     1       4.549  -5.040   3.513  0.00  0.00    +0.378 C 
ATOM     35  N   UNL     1       3.629  -5.194   2.625  0.00  0.00    +0.037 NA
ATOM     36  C   UNL     1       3.966  -4.319   1.624  0.00  0.00    +0.373 C 
ATOM     37  O   UNL     1       3.373  -4.163   0.571  0.00  0.00    -0.238 OA
BRANCH  31  38
ATOM     38  C   UNL     1       5.646  -6.195   6.732  0.00  0.00    +0.054 A 
ATOM     39  C   UNL     1       5.592  -5.536   7.966  0.00  0.00    +0.132 A 
ATOM     40  C   UNL     1       5.605  -6.245   9.165  0.00  0.00    +0.039 A 
ATOM     41  C   UNL     1       5.662  -7.638   9.144  0.00  0.00    +0.003 A 
ATOM     42  C   UNL     1       5.696  -8.313   7.923  0.00  0.00    +0.001 A 
ATOM     43  F   UNL     1       5.499  -4.198   8.015  0.00  0.00    -0.205 F 
ATOM     44  C   UNL     1       5.683  -7.597   6.722  0.00  0.00    +0.012 A 
ENDBRANCH  31  38
ENDBRANCH  25  26
ENDBRANCH  14  25
TORSDOF 4
