REMARK  Name = *****
REMARK  9 active torsions:
REMARK  status: ('A' for Active; 'I' for Inactive)
REMARK    1  A    between atoms: C_5  and  C_34
REMARK    2  A    between atoms: C_7  and  S_8
REMARK    3  A    between atoms: S_8  and  C_9
REMARK    4  A    between atoms: C_10  and  C_11
REMARK    5  A    between atoms: C_34  and  C_35
REMARK    6  A    between atoms: C_34  and  C_36
REMARK    7  A    between atoms: C_34  and  N_38
REMARK    8  A    between atoms: C_36  and  O_37
REMARK    9  A    between atoms: N_38  and  O_39
REMARK                            x       y       z     vdW  Elec       q    Type
REMARK                         _______ _______ _______ _____ _____    ______ ____
ROOT
ATOM      1  O   UNL     1       7.211   2.137  -1.789  0.00  0.00    -0.295 OA
ATOM      2  C   UNL     1       6.278   1.414  -2.169  0.00  0.00    +0.161 C 
ATOM      3  C   UNL     1       4.962   1.495  -1.367  0.00  0.00    +0.091 C 
ATOM      4  C   UNL     1       4.124   2.823  -1.256  0.00  0.00    +0.177 C 
ATOM      5  F   UNL     1       3.807   2.932   0.082  0.00  0.00    -0.245 F 
ATOM      6  C   UNL     1       4.670   4.207  -1.674  0.00  0.00    +0.040 C 
ATOM      7  C   UNL     1       4.551   4.593  -3.177  0.00  0.00    -0.010 C 
ATOM      8  C   UNL     1       3.263   5.305  -3.648  0.00  0.00    -0.078 C 
ATOM      9  N   UNL     1       3.067   5.513  -5.102  0.00  0.00    +0.379 N 
ATOM     10  H   UNL     1       2.723   6.473  -5.136  0.00  0.00    -0.086 HD
ATOM     11  H   UNL     1       2.461   4.757  -5.420  0.00  0.00    -0.086 HD
ATOM     12  C   UNL     1       4.199   5.558  -6.045  0.00  0.00    -0.083 C 
ATOM     13  C   UNL     1       4.351   4.305  -6.975  0.00  0.00    -0.017 C 
ATOM     14  C   UNL     1       5.751   3.696  -7.256  0.00  0.00    +0.023 C 
ATOM     15  C   UNL     1       6.673   3.076  -6.180  0.00  0.00    +0.107 C 
ATOM     16  C   UNL     1       6.974   3.904  -4.948  0.00  0.00    +0.129 C 
ATOM     17  N   UNL     1       6.106   3.019  -4.159  0.00  0.00    -0.224 NA
ATOM     18  N   UNL     1       6.165   2.106  -5.179  0.00  0.00    -0.255 N 
ATOM     19  C   UNL     1       6.543   0.819  -4.861  0.00  0.00    +0.090 C 
ATOM     20  S   UNL     1       6.909  -0.264  -6.119  0.00  0.00    -0.037 S 
ATOM     21  C   UNL     1       4.718   3.365  -4.017  0.00  0.00    +0.107 C 
ATOM     22  C   UNL     1       4.015   0.319  -1.616  0.00  0.00    +0.019 C 
ATOM     23  C   UNL     1       4.683  -1.034  -1.896  0.00  0.00    +0.016 C 
ATOM     24  C   UNL     1       5.540  -0.874  -3.171  0.00  0.00    +0.037 C 
ATOM     25  C   UNL     1       6.520   0.321  -3.307  0.00  0.00    +0.125 C 
ENDROOT
BRANCH  23  26
ATOM     26  C   UNL     1       5.262  -1.850  -0.673  0.00  0.00    +0.067 C 
ATOM     27  C   UNL     1       6.366  -1.157   0.133  0.00  0.00    +0.032 C 
BRANCH  26  28
ATOM     28  N   UNL     1       5.909  -3.136  -1.202  0.00  0.00    -0.196 NA
ATOM     29  H   UNL     1       6.265  -3.673  -0.411  0.00  0.00    +0.154 HD
BRANCH  28  30
ATOM     30  O   UNL     1       4.981  -3.956  -1.936  0.00  0.00    -0.314 OA
ATOM     31  H   UNL     1       4.635  -3.456  -2.691  0.00  0.00    +0.236 HD
ENDBRANCH  28  30
ENDBRANCH  26  28
BRANCH  26  32
ATOM     32  C   UNL     1       4.125  -2.292   0.310  0.00  0.00    +0.180 C 
BRANCH  32  33
ATOM     33  O   UNL     1       3.676  -1.209   1.107  0.00  0.00    -0.393 OA
ATOM     34  H   UNL     1       4.412  -0.874   1.642  0.00  0.00    +0.209 HD
ENDBRANCH  32  33
ENDBRANCH  26  32
ENDBRANCH  23  26
BRANCH  25  35
ATOM     35  S   UNL     1       8.269  -0.198  -2.975  0.00  0.00    -0.112 S 
BRANCH  35  36
ATOM     36  C   UNL     1       8.523  -1.865  -3.292  0.00  0.00    +0.042 C 
ATOM     37  C   UNL     1       9.251  -2.541  -2.394  0.00  0.00    +0.016 C 
BRANCH  37  38
ATOM     38  C   UNL     1       9.631  -3.951  -2.585  0.00  0.00    -0.006 A 
ATOM     39  C   UNL     1       9.406  -4.929  -1.599  0.00  0.00    +0.048 A 
ATOM     40 CL   UNL     1       8.569  -4.559  -0.128  0.00  0.00    -0.083 Cl
ATOM     41  C   UNL     1       9.813  -6.252  -1.798  0.00  0.00    +0.020 A 
ATOM     42  C   UNL     1      10.455  -6.613  -2.982  0.00  0.00    +0.001 A 
ATOM     43  C   UNL     1      10.692  -5.654  -3.964  0.00  0.00    +0.001 A 
ATOM     44  C   UNL     1      10.288  -4.332  -3.766  0.00  0.00    +0.009 A 
ENDBRANCH  37  38
ENDBRANCH  35  36
ENDBRANCH  25  35
TORSDOF 8
