REMARK  Name = *****
REMARK  4 active torsions:
REMARK  status: ('A' for Active; 'I' for Inactive)
REMARK    1  A    between atoms: N_1  and  C_2
REMARK    2  A    between atoms: C_4  and  O_5
REMARK    3  A    between atoms: C_20  and  C_21
REMARK    4  A    between atoms: C_21  and  C_22
REMARK                            x       y       z     vdW  Elec       q    Type
REMARK                         _______ _______ _______ _____ _____    ______ ____
ROOT
ATOM      1  C   UNL     1       4.546  -4.065  -0.834  0.00  0.00    -0.052 C 
ATOM      2  C   UNL     1       3.040  -4.151  -1.311  0.00  0.00    +0.020 C 
ATOM      3  C   UNL     1       2.858  -3.891  -2.810  0.00  0.00    +0.071 C 
ATOM      4  C   UNL     1       1.601  -4.207  -3.734  0.00  0.00    +0.030 C 
ATOM      5  C   UNL     1       0.876  -5.503  -3.352  0.00  0.00    +0.007 C 
ATOM      6  C   UNL     1       1.760  -6.715  -3.649  0.00  0.00    +0.001 C 
ATOM      7  C   UNL     1       3.252  -6.422  -3.489  0.00  0.00    +0.007 C 
ATOM      8  C   UNL     1       2.648  -4.354  -4.942  0.00  0.00    +0.047 C 
ATOM      9  C   UNL     1       3.260  -3.078  -5.579  0.00  0.00    +0.020 A 
ATOM     10  N   UNL     1       4.411  -2.495  -5.114  0.00  0.00    -0.360 N 
ATOM     11  H   UNL     1       4.996  -2.901  -4.435  0.00  0.00    +0.165 HD
ATOM     12  C   UNL     1       4.650  -1.289  -5.700  0.00  0.00    +0.030 A 
ATOM     13  C   UNL     1       5.745  -0.405  -5.152  0.00  0.00    +0.139 C 
ATOM     14  N   UNL     1       6.190  -0.684  -3.763  0.00  0.00    -0.279 NA
ATOM     15  C   UNL     1       5.204  -0.390  -2.706  0.00  0.00    +0.155 C 
ATOM     16  S   UNL     1       5.359  -1.344  -1.133  0.00  0.00    -0.135 S 
ATOM     17  C   UNL     1       7.192  -1.497  -3.437  0.00  0.00    +0.056 C 
ATOM     18  C   UNL     1       8.377  -2.036  -3.344  0.00  0.00    +0.011 C 
ATOM     19  C   UNL     1       7.232  -2.922  -3.458  0.00  0.00    +0.062 C 
ATOM     20  C   UNL     1       6.448  -3.567  -2.400  0.00  0.00    +0.166 C 
ATOM     21  F   UNL     1       6.519  -4.926  -2.469  0.00  0.00    -0.237 F 
ATOM     22  C   UNL     1       3.728  -1.190  -6.727  0.00  0.00    +0.024 A 
ATOM     23  C   UNL     1       2.860  -2.335  -6.664  0.00  0.00    +0.023 A 
ATOM     24  C   UNL     1       3.555  -4.947  -3.801  0.00  0.00    +0.030 C 
ATOM     25  C   UNL     1       5.506  -3.069  -1.551  0.00  0.00    +0.058 C 
ENDROOT
BRANCH   1  26
ATOM     26  N   UNL     1       4.582  -3.881   0.630  0.00  0.00    +0.381 N 
ATOM     27  H   UNL     1       3.946  -4.545   1.072  0.00  0.00    -0.090 HD
ATOM     28  H   UNL     1       5.531  -4.041   0.970  0.00  0.00    -0.090 HD
ATOM     29  H   UNL     1       4.295  -2.930   0.860  0.00  0.00    -0.090 HD
ENDBRANCH   1  26
BRANCH   3  30
ATOM     30  O   UNL     1       3.153  -2.481  -2.914  0.00  0.00    -0.388 OA
ATOM     31  H   UNL     1       2.648  -1.994  -2.243  0.00  0.00    +0.210 HD
ENDBRANCH   3  30
BRANCH  18  32
ATOM     32  C   UNL     1       9.601  -1.745  -4.110  0.00  0.00    +0.046 C 
BRANCH  32  33
ATOM     33  C   UNL     1       9.574  -2.140  -5.571  0.00  0.00    -0.028 A 
ATOM     34  C   UNL     1       9.763  -3.460  -6.010  0.00  0.00    +0.044 A 
ATOM     35 CL   UNL     1      10.079  -4.755  -4.911  0.00  0.00    -0.083 Cl
ATOM     36  C   UNL     1       9.697  -3.772  -7.372  0.00  0.00    +0.020 A 
ATOM     37  C   UNL     1       9.447  -2.774  -8.312  0.00  0.00    +0.001 A 
ATOM     38  C   UNL     1       9.264  -1.459  -7.893  0.00  0.00    +0.000 A 
ATOM     39  C   UNL     1       9.328  -1.145  -6.535  0.00  0.00    +0.005 A 
ENDBRANCH  32  33
ENDBRANCH  18  32
TORSDOF 4
