REMARK  Name = *****
REMARK  10 active torsions:
REMARK  status: ('A' for Active; 'I' for Inactive)
REMARK    1  A    between atoms: C_1  and  C_2
REMARK    2  A    between atoms: C_2  and  O_40
REMARK    3  A    between atoms: C_12  and  C_13
REMARK    4  A    between atoms: C_12  and  C_14
REMARK    5  A    between atoms: C_19  and  C_20
REMARK    6  A    between atoms: C_19  and  O_24
REMARK    7  A    between atoms: O_24  and  C_25
REMARK    8  A    between atoms: C_30  and  C_31
REMARK    9  A    between atoms: C_35  and  O_36
REMARK   10  A    between atoms: C_39  and  O_40
REMARK                            x       y       z     vdW  Elec       q    Type
REMARK                         _______ _______ _______ _____ _____    ______ ____
ROOT
ATOM      1  C   UNL     1       5.118   1.149   3.418  0.00  0.00    +0.114 C 
ATOM      2  C   UNL     1       5.465   1.558   1.930  0.00  0.00    +0.290 C 
ATOM      3  N   UNL     1       5.015   3.092   1.934  0.00  0.00    -0.236 N 
ATOM      4  C   UNL     1       5.045   4.105   3.148  0.00  0.00    +0.171 C 
ATOM      5  C   UNL     1       6.467   4.908   3.860  0.00  0.00    +0.218 C 
ATOM      6  C   UNL     1       7.066   3.943   4.937  0.00  0.00    +0.040 C 
ATOM      7  C   UNL     1       7.956   2.736   4.545  0.00  0.00    -0.075 C 
ATOM      8  N   UNL     1       7.626   1.971   3.291  0.00  0.00    +0.379 N 
ATOM      9  C   UNL     1       8.458   0.720   3.303  0.00  0.00    -0.098 C 
ATOM     10  C   UNL     1       8.057  -0.677   2.653  0.00  0.00    -0.102 C 
ATOM     11  N   UNL     1       6.680  -1.174   2.833  0.00  0.00    +0.379 N 
ATOM     12  H   UNL     1       6.735  -2.059   3.338  0.00  0.00    -0.086 HD
ATOM     13  H   UNL     1       6.190  -0.428   3.327  0.00  0.00    -0.086 HD
ATOM     14  C   UNL     1       5.884  -1.409   1.606  0.00  0.00    -0.054 C 
ATOM     15  C   UNL     1       4.513  -0.641   1.441  0.00  0.00    +0.147 C 
ATOM     16  H   UNL     1       6.697   1.565   3.174  0.00  0.00    -0.082 HD
ATOM     17  C   UNL     1       7.655   2.991   2.162  0.00  0.00    -0.078 C 
ATOM     18  C   UNL     1       7.249   3.700   0.590  0.00  0.00    -0.003 C 
ATOM     19  C   UNL     1       5.869   3.823  -0.163  0.00  0.00    +0.040 C 
ATOM     20  C   UNL     1       5.838   5.245  -0.801  0.00  0.00    +0.020 C 
ATOM     21  C   UNL     1       5.642   2.855  -1.334  0.00  0.00    +0.020 C 
ATOM     22  C   UNL     1       4.705   3.726   0.767  0.00  0.00    +0.226 C 
ATOM     23  O   UNL     1       3.654   4.343   0.603  0.00  0.00    -0.275 OA
ATOM     24  O   UNL     1       4.442   0.794   1.219  0.00  0.00    -0.326 OA
ENDROOT
BRANCH   5  25
ATOM     25  C   UNL     1       5.779   6.086   4.599  0.00  0.00    +0.431 C 
ATOM     26  F   UNL     1       6.590   6.711   5.479  0.00  0.00    -0.167 F 
ATOM     27  F   UNL     1       4.718   5.649   5.323  0.00  0.00    -0.167 F 
ATOM     28  F   UNL     1       5.318   7.019   3.739  0.00  0.00    -0.167 F 
ENDBRANCH   5  25
BRANCH   5  29
ATOM     29  O   UNL     1       7.506   5.457   2.847  0.00  0.00    -0.475 OA
BRANCH  29  30
ATOM     30  C   UNL     1       8.888   5.604   3.126  0.00  0.00    +0.125 A 
ATOM     31  C   UNL     1       9.170   6.555   4.117  0.00  0.00    +0.046 A 
ATOM     32  C   UNL     1      10.474   6.815   4.542  0.00  0.00    +0.004 A 
ATOM     33  C   UNL     1      11.546   6.150   3.966  0.00  0.00    +0.000 A 
ATOM     34  C   UNL     1      11.332   5.252   2.921  0.00  0.00    +0.007 A 
ATOM     35  C   UNL     1      10.034   4.965   2.424  0.00  0.00    -0.005 A 
ATOM     36  C   UNL     1      10.120   3.952   1.148  0.00  0.00    +0.043 C 
ENDBRANCH  29  30
ENDBRANCH   5  29
BRANCH   2  37
ATOM     37  O   UNL     1       6.639   1.201   0.985  0.00  0.00    -0.441 OA
BRANCH  37  38
ATOM     38  C   UNL     1       7.853   1.117   0.285  0.00  0.00    +0.173 A 
ATOM     39  C   UNL     1       9.229   1.697   0.359  0.00  0.00    +0.224 A 
ATOM     40  O   UNL     1       9.807   2.502   1.366  0.00  0.00    -0.284 OA
ATOM     41  C   UNL     1      10.197   1.380  -0.619  0.00  0.00    +0.100 A 
ATOM     42  C   UNL     1       9.876   0.559  -1.688  0.00  0.00    +0.121 A 
ATOM     43  C   UNL     1       8.605   0.033  -1.820  0.00  0.00    +0.049 A 
ATOM     44  C   UNL     1       7.626   0.312  -0.859  0.00  0.00    +0.053 A 
BRANCH  42  45
ATOM     45  O   UNL     1      10.794   0.242  -2.645  0.00  0.00    -0.507 OA
ATOM     46  H   UNL     1      11.666   0.581  -2.589  0.00  0.00    +0.292 HD
ENDBRANCH  42  45
ENDBRANCH  37  38
ENDBRANCH   2  37
TORSDOF 6
