REMARK  Name = *****
REMARK  7 active torsions:
REMARK  status: ('A' for Active; 'I' for Inactive)
REMARK    1  A    between atoms: C_1  and  C_2
REMARK    2  A    between atoms: C_2  and  C_3
REMARK    3  A    between atoms: N_6  and  C_7
REMARK    4  A    between atoms: C_7  and  C_8
REMARK    5  A    between atoms: C_16  and  O_17
REMARK    6  A    between atoms: C_29  and  O_30
REMARK    7  A    between atoms: O_30  and  C_31
REMARK                            x       y       z     vdW  Elec       q    Type
REMARK                         _______ _______ _______ _____ _____    ______ ____
ROOT
ATOM      1  C   UNL     1       2.859  -1.030  -0.542  0.00  0.00    -0.007 C 
ATOM      2  C   UNL     1       3.508  -2.422  -0.512  0.00  0.00    +0.028 C 
ATOM      3  C   UNL     1       2.493  -3.571  -0.663  0.00  0.00    +0.124 C 
ATOM      4  O   UNL     1       3.154  -4.841  -0.642  0.00  0.00    -0.503 OA
ATOM      5  C   UNL     1       3.776  -5.330   0.470  0.00  0.00    +0.161 A 
ATOM      6  C   UNL     1       3.594  -4.882   1.780  0.00  0.00    +0.165 A 
ATOM      7  C   UNL     1       4.276  -5.468   2.845  0.00  0.00    +0.042 A 
ATOM      8  C   UNL     1       5.147  -6.529   2.616  0.00  0.00    +0.004 A 
ATOM      9  C   UNL     1       5.330  -7.001   1.317  0.00  0.00    +0.012 A 
ATOM     10  F   UNL     1       2.748  -3.883   2.071  0.00  0.00    -0.202 F 
ATOM     11  C   UNL     1       4.657  -6.412   0.231  0.00  0.00    +0.030 A 
ATOM     12  C   UNL     1       4.859  -6.947  -1.132  0.00  0.00    +0.033 A 
ATOM     13  C   UNL     1       3.901  -7.797  -1.722  0.00  0.00    +0.139 A 
ATOM     14  C   UNL     1       4.014  -8.256  -3.039  0.00  0.00    +0.047 A 
ATOM     15  C   UNL     1       5.121  -7.892  -3.798  0.00  0.00    +0.004 A 
ATOM     16  C   UNL     1       6.104  -7.076  -3.241  0.00  0.00    +0.007 A 
ATOM     17  C   UNL     1       5.973  -6.613  -1.923  0.00  0.00    -0.006 A 
ATOM     18  C   UNL     1       7.051  -5.763  -1.418  0.00  0.00    +0.137 C 
ATOM     19 BR   UNL     1       8.557  -6.554  -0.653  0.00  0.00    -0.064 Br
ATOM     20  S   UNL     1       6.953  -3.978  -1.547  0.00  0.00    -0.050 S 
ATOM     21  S   UNL     1       7.912  -3.682  -3.311  0.00  0.00    +0.006 S 
ATOM     22  N   UNL     1       7.067  -2.337  -3.836  0.00  0.00    -0.171 NA
ATOM     23  C   UNL     1       7.854  -1.103  -4.099  0.00  0.00    +0.143 C 
ATOM     24  C   UNL     1       7.056   0.215  -3.983  0.00  0.00    +0.139 C 
ATOM     25  C   UNL     1       6.451   0.396  -2.589  0.00  0.00    +0.128 C 
ATOM     26  C   UNL     1       4.956   0.596  -2.666  0.00  0.00    +0.216 C 
ATOM     27  O   UNL     1       4.433   1.672  -2.380  0.00  0.00    -0.276 OA
ATOM     28  N   UNL     1       4.248  -0.522  -3.030  0.00  0.00    -0.315 N 
ATOM     29  C   UNL     1       2.807  -0.539  -3.133  0.00  0.00    +0.106 C 
ATOM     30  H   UNL     1       4.743  -1.349  -3.229  0.00  0.00    +0.149 HD
ATOM     31  S   UNL     1       5.975  -2.785  -4.794  0.00  0.00    +0.021 S 
ATOM     32  N   UNL     1       1.686  -3.443  -1.905  0.00  0.00    +0.404 N 
ATOM     33  H   UNL     1       0.897  -4.086  -1.844  0.00  0.00    -0.076 HD
ATOM     34  C   UNL     1       1.089  -2.104  -2.017  0.00  0.00    -0.068 C 
ATOM     35  C   UNL     1       2.020  -0.879  -1.835  0.00  0.00    -0.007 C 
ENDROOT
BRANCH   1  37
ATOM     36  C   UNL     1       1.616   0.659   0.939  0.00  0.00    +0.004 C 
ATOM     37  C   UNL     1       2.042  -0.792   0.752  0.00  0.00    +0.000 C 
ENDBRANCH   1  37
BRANCH  24  38
ATOM     38  O   UNL     1       7.944   1.327  -4.241  0.00  0.00    -0.390 OA
ATOM     39  H   UNL     1       8.655   1.333  -3.581  0.00  0.00    +0.210 HD
ENDBRANCH  24  38
BRANCH  32  40
ATOM     40  C   UNL     1       2.428  -3.887  -3.098  0.00  0.00    -0.077 C 
ATOM     41  C   UNL     1       1.561  -4.009  -4.349  0.00  0.00    -0.017 C 
ENDBRANCH  32  40
BRANCH  13  42
ATOM     42  O   UNL     1       2.730  -8.136  -1.030  0.00  0.00    -0.427 OA
BRANCH  42  43
ATOM     43  C   UNL     1       2.889  -9.229  -0.201  0.00  0.00    +0.451 C 
ATOM     44  O   UNL     1       3.869  -9.943  -0.056  0.00  0.00    -0.254 OA
ENDBRANCH  42  43
ENDBRANCH  13  42
TORSDOF 5
