REMARK  Name = *****
REMARK  27 active torsions:
REMARK  status: ('A' for Active; 'I' for Inactive)
REMARK    1  A    between atoms: C_1  and  C_2
REMARK    2  A    between atoms: C_2  and  N_3
REMARK    3  A    between atoms: N_3  and  C_4
REMARK    4  A    between atoms: C_4  and  C_5
REMARK    5  A    between atoms: C_5  and  C_6
REMARK    6  A    between atoms: C_11  and  C_12
REMARK    7  A    between atoms: C_11  and  O_13
REMARK    8  A    between atoms: O_13  and  C_14
REMARK    9  A    between atoms: C_14  and  C_15
REMARK   10  A    between atoms: C_15  and  C_16
REMARK   11  A    between atoms: C_16  and  C_18
REMARK   12  A    between atoms: C_16  and  O_22
REMARK   13  A    between atoms: N_20  and  C_21
REMARK   14  A    between atoms: O_22  and  C_23
REMARK   15  A    between atoms: C_23  and  C_24
REMARK   16  A    between atoms: C_28  and  C_29
REMARK   17  A    between atoms: C_30  and  N_31
REMARK   18  A    between atoms: N_31  and  O_32
REMARK   19  A    between atoms: O_32  and  C_33
REMARK   20  A    between atoms: C_33  and  C_34
REMARK   21  A    between atoms: C_39  and  O_40
REMARK   22  A    between atoms: O_40  and  C_41
REMARK   23  A    between atoms: C_42  and  C_43
REMARK   24  A    between atoms: C_44  and  C_45
REMARK   25  A    between atoms: C_48  and  C_49
REMARK   26  A    between atoms: C_52  and  O_53
REMARK   27  A    between atoms: O_53  and  C_54
REMARK                            x       y       z     vdW  Elec       q    Type
REMARK                         _______ _______ _______ _____ _____    ______ ____
ROOT
ATOM      1  C   UNL     1       7.769  -0.523   3.863  0.00  0.00    -0.004 C 
ATOM      2  C   UNL     1       6.649  -1.160   3.014  0.00  0.00    -0.000 C 
ATOM      3  C   UNL     1       6.737  -2.768   2.979  0.00  0.00    +0.042 C 
ATOM      4  C   UNL     1       8.219  -3.513   3.055  0.00  0.00    +0.062 C 
ATOM      5  C   UNL     1       7.959  -4.712   4.028  0.00  0.00    +0.040 C 
ATOM      6  C   UNL     1       9.675  -2.762   3.596  0.00  0.00    +0.032 C 
ATOM      7  C   UNL     1      10.566  -1.440   2.993  0.00  0.00    +0.146 C 
ATOM      8  C   UNL     1      10.633   0.084   3.504  0.00  0.00    +0.042 A 
ATOM      9  C   UNL     1      11.752   0.282   4.376  0.00  0.00    +0.013 A 
ATOM     10  C   UNL     1      12.158   1.536   4.826  0.00  0.00    +0.020 A 
ATOM     11  C   UNL     1      11.451   2.631   4.406  0.00  0.00    +0.114 A 
ATOM     12  N   UNL     1      10.371   2.536   3.617  0.00  0.00    -0.221 NA
ATOM     13  C   UNL     1       9.954   1.323   3.176  0.00  0.00    +0.229 A 
ATOM     14  O   UNL     1       8.595   1.551   2.552  0.00  0.00    -0.406 OA
ATOM     15  C   UNL     1       7.205   1.316   2.013  0.00  0.00    +0.321 C 
ATOM     16  O   UNL     1       6.494   2.225   1.614  0.00  0.00    -0.250 OA
ATOM     17  C   UNL     1       6.940  -0.200   2.010  0.00  0.00    +0.091 C 
ATOM     18  C   UNL     1       8.286  -0.855   2.080  0.00  0.00    +0.024 C 
ENDROOT
BRANCH   6  19
ATOM     19  N   UNL     1      10.740  -3.947   3.255  0.00  0.00    +0.408 N 
ATOM     20  H   UNL     1      10.260  -4.844   3.325  0.00  0.00    -0.039 HD
ATOM     21  H   UNL     1      11.104  -3.807   2.313  0.00  0.00    -0.039 HD
BRANCH  19  22
ATOM     22  O   UNL     1      11.838  -3.943   4.189  0.00  0.00    -0.429 OA
BRANCH  22  23
ATOM     23  C   UNL     1      12.081  -5.240   4.772  0.00  0.00    +0.181 C 
BRANCH  23  24
ATOM     24  C   UNL     1      11.319  -5.422   6.047  0.00  0.00    +0.057 A 
ATOM     25  C   UNL     1      10.862  -4.372   6.816  0.00  0.00    +0.123 A 
ATOM     26  N   UNL     1      10.149  -4.518   7.945  0.00  0.00    -0.243 NA
ATOM     27  C   UNL     1       9.945  -5.774   8.361  0.00  0.00    +0.225 A 
ATOM     28  N   UNL     1      10.393  -6.874   7.744  0.00  0.00    -0.200 NA
ATOM     29  C   UNL     1      11.095  -6.668   6.607  0.00  0.00    +0.240 A 
BRANCH  29  30
ATOM     30  O   UNL     1      11.626  -7.768   5.944  0.00  0.00    -0.386 OA
BRANCH  30  31
ATOM     31  C   UNL     1      12.005  -8.721   6.794  0.00  0.00    +0.125 C 
ATOM     32  C   UNL     1      12.327  -9.541   7.612  0.00  0.00    -0.017 C 
BRANCH  32  33
ATOM     33  C   UNL     1      12.660 -10.451   8.653  0.00  0.00    +0.102 A 
ATOM     34  C   UNL     1      11.851 -10.864   9.692  0.00  0.00    +0.237 A 
ATOM     35  O   UNL     1      12.565 -11.752  10.450  0.00  0.00    -0.348 OA
ATOM     36  N   UNL     1      13.837 -11.906   9.935  0.00  0.00    -0.081 NA
ATOM     37  C   UNL     1      13.891 -11.121   8.855  0.00  0.00    +0.097 A 
ATOM     38  C   UNL     1      15.134 -11.054   8.053  0.00  0.00    +0.070 C 
BRANCH  34  39
ATOM     39  C   UNL     1      10.504 -10.591  10.128  0.00  0.00    +0.281 C 
ATOM     40  O   UNL     1       9.920 -11.208  11.016  0.00  0.00    -0.267 OA
ATOM     41  N   UNL     1       9.831  -9.560   9.526  0.00  0.00    -0.323 N 
ATOM     42  H   UNL     1       8.914  -9.338   9.809  0.00  0.00    +0.145 HD
ATOM     43  H   UNL     1      10.264  -9.040   8.810  0.00  0.00    +0.145 HD
ENDBRANCH  34  39
ENDBRANCH  32  33
ENDBRANCH  30  31
ENDBRANCH  29  30
ENDBRANCH  23  24
ENDBRANCH  22  23
ENDBRANCH  19  22
ENDBRANCH   6  19
BRANCH   7  44
ATOM     44  O   UNL     1      10.803  -1.691   1.583  0.00  0.00    -0.376 OA
ATOM     45  C   UNL     1      11.822  -0.890   0.984  0.00  0.00    +0.194 C 
ENDBRANCH   7  44
BRANCH   4  46
ATOM     46  O   UNL     1       8.631  -4.028   1.752  0.00  0.00    -0.375 OA
BRANCH  46  47
ATOM     47  C   UNL     1       8.019  -5.172   1.136  0.00  0.00    +0.166 C 
BRANCH  47  48
ATOM     48  C   UNL     1       6.658  -4.899   0.512  0.00  0.00    +0.108 C 
BRANCH  48  49
ATOM     49  C   UNL     1       6.284  -5.851  -0.628  0.00  0.00    +0.289 C 
ATOM     50  F   UNL     1       7.216  -5.743  -1.618  0.00  0.00    -0.200 F 
BRANCH  49  51
ATOM     51  C   UNL     1       6.156  -7.328  -0.152  0.00  0.00    +0.278 C 
ATOM     52  O   UNL     1       6.629  -7.736   0.908  0.00  0.00    -0.270 OA
ATOM     53  N   UNL     1       5.513  -8.149  -1.060  0.00  0.00    -0.314 N 
ATOM     54  C   UNL     1       5.224  -9.536  -0.795  0.00  0.00    +0.128 C 
ATOM     55  H   UNL     1       5.241  -7.770  -1.927  0.00  0.00    +0.149 HD
ENDBRANCH  49  51
BRANCH  49  56
ATOM     56  O   UNL     1       5.016  -5.461  -1.173  0.00  0.00    -0.338 OA
BRANCH  56  57
ATOM     57  C   UNL     1       5.092  -4.421  -2.148  0.00  0.00    +0.167 C 
BRANCH  57  58
ATOM     58  C   UNL     1       3.711  -3.780  -2.273  0.00  0.00    +0.018 C 
ATOM     59  C   UNL     1       3.211  -3.192  -0.949  0.00  0.00    +0.006 C 
ATOM     60  C   UNL     1       2.180  -2.133  -1.338  0.00  0.00    +0.001 C 
ATOM     61  C   UNL     1       2.330  -1.918  -2.844  0.00  0.00    +0.003 C 
ATOM     62  C   UNL     1       3.663  -2.571  -3.213  0.00  0.00    -0.009 C 
ATOM     63  C   UNL     1       3.749  -2.928  -4.688  0.00  0.00    +0.008 C 
ENDBRANCH  57  58
ENDBRANCH  56  57
ENDBRANCH  49  56
ENDBRANCH  48  49
ENDBRANCH  47  48
ENDBRANCH  46  47
ENDBRANCH   4  46
BRANCH   1  64
ATOM     64  C   UNL     1       7.710  -1.106   5.300  0.00  0.00    -0.015 C 
BRANCH  64  65
ATOM     65  C   UNL     1       8.719  -0.524   6.299  0.00  0.00    -0.082 C 
BRANCH  65  66
ATOM     66  N   UNL     1       8.517   0.895   6.530  0.00  0.00    +0.379 N 
ATOM     67  H   UNL     1       7.527   1.044   6.730  0.00  0.00    -0.086 HD
ATOM     68  H   UNL     1       8.807   1.409   5.699  0.00  0.00    -0.086 HD
BRANCH  66  70
ATOM     69  C   UNL     1       9.066   2.874   7.851  0.00  0.00    -0.017 C 
ATOM     70  C   UNL     1       9.285   1.380   7.677  0.00  0.00    -0.086 C 
ENDBRANCH  66  70
ENDBRANCH  65  66
ENDBRANCH  64  65
ENDBRANCH   1  64
TORSDOF 21
