REMARK  Name = *****
REMARK  8 active torsions:
REMARK  status: ('A' for Active; 'I' for Inactive)
REMARK    1  A    between atoms: N_1  and  C_2
REMARK    2  A    between atoms: C_5  and  O_6
REMARK    3  A    between atoms: C_10  and  C_11
REMARK    4  A    between atoms: C_18  and  C_19
REMARK    5  A    between atoms: C_31  and  C_32
REMARK    6  A    between atoms: C_31  and  N_35
REMARK    7  A    between atoms: N_35  and  N_36
REMARK    8  A    between atoms: N_35  and  O_37
REMARK                            x       y       z     vdW  Elec       q    Type
REMARK                         _______ _______ _______ _____ _____    ______ ____
ROOT
ATOM      1  C   UNL     1       3.122   0.236  -0.201  0.00  0.00    -0.021 C 
ATOM      2  C   UNL     1       3.752  -1.122  -0.807  0.00  0.00    +0.049 C 
ATOM      3  C   UNL     1       2.615  -2.221  -1.026  0.00  0.00    +0.027 C 
ATOM      4  C   UNL     1       2.523  -3.035  -2.337  0.00  0.00    +0.038 C 
ATOM      5  C   UNL     1       1.666  -2.507  -3.533  0.00  0.00    +0.169 C 
ATOM      6  C   UNL     1       0.125  -2.547  -3.270  0.00  0.00    +0.216 C 
ATOM      7  O   UNL     1      -0.627  -1.814  -2.503  0.00  0.00    -0.380 OA
ATOM      8  N   UNL     1      -0.588  -0.709  -1.719  0.00  0.00    -0.088 NA
ATOM      9  C   UNL     1       0.267   0.247  -1.605  0.00  0.00    +0.118 C 
ATOM     10  C   UNL     1       0.013   1.367  -0.634  0.00  0.00    +0.297 C 
ATOM     11  O   UNL     1       1.318   1.924  -0.433  0.00  0.00    -0.344 OA
ATOM     12  C   UNL     1       1.539   0.470  -2.296  0.00  0.00    +0.069 C 
ATOM     13  C   UNL     1       1.380   1.238  -3.607  0.00  0.00    +0.014 C 
ATOM     14  C   UNL     1       0.776   0.377  -4.732  0.00  0.00    +0.029 C 
ATOM     15  C   UNL     1       1.683  -0.761  -5.216  0.00  0.00    +0.160 C 
ATOM     16  O   UNL     1       2.338  -1.418  -4.132  0.00  0.00    -0.372 OA
ATOM     17  C   UNL     1       4.678  -0.818  -1.996  0.00  0.00    +0.030 C 
ATOM     18  C   UNL     1       2.303   1.178  -1.192  0.00  0.00    +0.118 C 
ENDROOT
BRANCH   6  19
ATOM     19  C   UNL     1      -0.665  -3.670  -4.008  0.00  0.00    +0.072 C 
ATOM     20  C   UNL     1      -0.521  -5.021  -3.327  0.00  0.00    -0.036 A 
ATOM     21  C   UNL     1      -1.538  -5.541  -2.508  0.00  0.00    -0.044 A 
ATOM     22  C   UNL     1      -1.342  -6.767  -1.851  0.00  0.00    +0.004 A 
ATOM     23  C   UNL     1      -0.159  -7.488  -2.008  0.00  0.00    +0.012 A 
ATOM     24  C   UNL     1       0.839  -7.015  -2.861  0.00  0.00    +0.055 A 
ATOM     25  C   UNL     1      -2.908  -4.909  -2.421  0.00  0.00    +0.035 C 
ATOM     26  C   UNL     1      -2.963  -3.470  -2.916  0.00  0.00    +0.005 C 
ATOM     27  C   UNL     1       0.640  -5.792  -3.526  0.00  0.00    +0.016 A 
ATOM     28  C   UNL     1      -2.141  -3.274  -4.189  0.00  0.00    +0.013 C 
BRANCH  24  29
ATOM     29  C   UNL     1       2.128  -7.777  -3.065  0.00  0.00    +0.417 C 
ATOM     30  F   UNL     1       2.185  -8.966  -2.414  0.00  0.00    -0.166 F 
ATOM     31  F   UNL     1       3.194  -7.048  -2.619  0.00  0.00    -0.166 F 
ATOM     32  F   UNL     1       2.380  -8.030  -4.376  0.00  0.00    -0.166 F 
ENDBRANCH  24  29
ENDBRANCH   6  19
BRANCH   1  33
ATOM     33  N   UNL     1       2.340  -0.049   1.038  0.00  0.00    +0.383 N 
ATOM     34  H   UNL     1       2.952  -0.468   1.738  0.00  0.00    -0.089 HD
ATOM     35  H   UNL     1       1.952   0.821   1.403  0.00  0.00    -0.089 HD
ATOM     36  H   UNL     1       1.581  -0.694   0.820  0.00  0.00    -0.089 HD
ENDBRANCH   1  33
BRANCH  10  37
ATOM     37  O   UNL     1      -0.807   2.302  -1.280  0.00  0.00    -0.362 OA
ATOM     38  H   UNL     1      -0.391   2.576  -2.113  0.00  0.00    +0.213 HD
ENDBRANCH  10  37
BRANCH   2  39
ATOM     39  N   UNL     1       4.673  -1.709   0.376  0.00  0.00    -0.123 NA
BRANCH  39  40
ATOM     40  N   UNL     1       5.280  -2.939  -0.015  0.00  0.00    -0.244 NA
ATOM     41  H   UNL     1       5.825  -3.311   0.762  0.00  0.00    +0.139 HD
ATOM     42  H   UNL     1       4.555  -3.608  -0.273  0.00  0.00    +0.139 HD
ENDBRANCH  39  40
BRANCH  39  43
ATOM     43  O   UNL     1       5.711  -0.785   0.734  0.00  0.00    -0.297 OA
ATOM     44  H   UNL     1       5.314   0.059   1.003  0.00  0.00    +0.238 HD
ENDBRANCH  39  43
ENDBRANCH   2  39
TORSDOF 7
