REMARK  Name = *****
REMARK  12 active torsions:
REMARK  status: ('A' for Active; 'I' for Inactive)
REMARK    1  A    between atoms: C_1  and  C_2
REMARK    2  A    between atoms: C_2  and  C_3
REMARK    3  A    between atoms: C_4  and  C_14
REMARK    4  A    between atoms: C_13  and  C_14
REMARK    5  A    between atoms: C_14  and  O_15
REMARK    6  A    between atoms: O_15  and  P_16
REMARK    7  A    between atoms: P_16  and  C_18
REMARK    8  A    between atoms: P_16  and  C_34
REMARK    9  A    between atoms: C_23  and  N_24
REMARK   10  A    between atoms: N_24  and  C_25
REMARK   11  A    between atoms: C_25  and  C_26
REMARK   12  A    between atoms: C_36  and  C_37
REMARK                            x       y       z     vdW  Elec       q    Type
REMARK                         _______ _______ _______ _____ _____    ______ ____
ROOT
ATOM      1  P   UNL     1       4.262   2.433  -1.374  0.00  0.00    +0.282 P 
ATOM      2  O   UNL     1       3.013   2.976  -0.730  0.00  0.00    -0.279 OA
ENDROOT
BRANCH   1   3
ATOM      3  C   UNL     1       5.677   3.380  -0.858  0.00  0.00    +0.107 A 
ATOM      4  C   UNL     1       5.541   4.585  -0.187  0.00  0.00    +0.045 A 
ATOM      5  C   UNL     1       6.841   5.111   0.083  0.00  0.00    +0.073 A 
ATOM      6  C   UNL     1       7.736   4.192  -0.439  0.00  0.00    +0.095 A 
ATOM      7  N   UNL     1       7.032   3.165  -1.002  0.00  0.00    -0.356 N 
ATOM      8  H   UNL     1       7.434   2.383  -1.446  0.00  0.00    +0.166 HD
BRANCH   5   9
ATOM      9  C   UNL     1       7.154   6.388   0.794  0.00  0.00    +0.419 C 
ATOM     10  F   UNL     1       7.274   6.202   2.133  0.00  0.00    -0.166 F 
ATOM     11  F   UNL     1       6.188   7.326   0.611  0.00  0.00    -0.166 F 
ATOM     12  F   UNL     1       8.320   6.939   0.367  0.00  0.00    -0.166 F 
ENDBRANCH   5   9
ENDBRANCH   1   3
BRANCH   1  13
ATOM     13  C   UNL     1       4.746   0.780  -1.038  0.00  0.00    +0.081 A 
ATOM     14  C   UNL     1       4.090   0.129   0.003  0.00  0.00    +0.126 A 
ATOM     15  N   UNL     1       4.366  -1.126   0.417  0.00  0.00    -0.262 NA
ATOM     16  C   UNL     1       5.358  -1.758  -0.234  0.00  0.00    +0.112 A 
ATOM     17  C   UNL     1       6.072  -1.199  -1.284  0.00  0.00    +0.043 A 
ATOM     18  C   UNL     1       5.747   0.081  -1.742  0.00  0.00    +0.043 A 
BRANCH  18  19
ATOM     19  N   UNL     1       6.475   0.738  -2.750  0.00  0.00    -0.339 N 
ATOM     20  H   UNL     1       6.397   1.716  -2.832  0.00  0.00    +0.146 HD
BRANCH  19  21
ATOM     21  C   UNL     1       7.345   0.016  -3.681  0.00  0.00    +0.139 C 
BRANCH  21  22
ATOM     22  C   UNL     1       6.564  -0.624  -4.798  0.00  0.00    +0.005 A 
ATOM     23  C   UNL     1       6.467  -2.016  -4.894  0.00  0.00    +0.131 A 
ATOM     24  F   UNL     1       7.083  -2.793  -3.992  0.00  0.00    -0.205 F 
ATOM     25  C   UNL     1       5.754  -2.627  -5.919  0.00  0.00    +0.077 A 
ATOM     26  C   UNL     1       5.131  -1.832  -6.870  0.00  0.00    +0.126 A 
ATOM     27  C   UNL     1       5.215  -0.445  -6.811  0.00  0.00    +0.039 A 
ATOM     28  F   UNL     1       4.439  -2.409  -7.861  0.00  0.00    -0.205 F 
ATOM     29  C   UNL     1       5.929   0.161  -5.776  0.00  0.00    +0.011 A 
ENDBRANCH  21  22
ENDBRANCH  19  21
ENDBRANCH  18  19
ENDBRANCH   1  13
BRANCH   1  30
ATOM     30  O   UNL     1       4.267   2.589  -2.985  0.00  0.00    -0.311 OA
BRANCH  30  31
ATOM     31  C   UNL     1       3.096   3.107  -3.605  0.00  0.00    +0.183 C 
BRANCH  31  34
ATOM     32  C   UNL     1       0.493   3.470  -5.163  0.00  0.00    +0.009 C 
ATOM     33  C   UNL     1       0.919   2.101  -4.592  0.00  0.00    -0.043 C 
ATOM     34  C   UNL     1       1.807   2.133  -3.352  0.00  0.00    -0.028 C 
ATOM     35  N   UNL     1       2.137   0.631  -3.145  0.00  0.00    +0.383 N 
ATOM     36  H   UNL     1       1.471   0.211  -2.496  0.00  0.00    -0.085 HD
ATOM     37  H   UNL     1       3.071   0.512  -2.752  0.00  0.00    -0.085 HD
ATOM     38  C   UNL     1       2.029  -0.041  -4.522  0.00  0.00    -0.078 C 
ATOM     39  C   UNL     1      -0.441   1.379  -4.350  0.00  0.00    +0.009 C 
ATOM     40  C   UNL     1       1.944   1.220  -5.362  0.00  0.00    -0.022 C 
ENDBRANCH  31  34
BRANCH  31  41
ATOM     41  C   UNL     1       3.514   3.384  -5.081  0.00  0.00    +0.179 A 
ATOM     42  O   UNL     1       4.375   4.433  -5.270  0.00  0.00    -0.461 OA
ATOM     43  C   UNL     1       4.594   4.543  -6.607  0.00  0.00    +0.199 A 
ATOM     44  C   UNL     1       3.896   3.586  -7.309  0.00  0.00    +0.092 A 
ATOM     45  C   UNL     1       3.200   2.833  -6.344  0.00  0.00    +0.222 A 
ATOM     46  O   UNL     1       2.376   1.744  -6.598  0.00  0.00    -0.284 OA
ENDBRANCH  31  41
ENDBRANCH  30  31
ENDBRANCH   1  30
TORSDOF 10
