MODEL 1
REMARK VINA RESULT:      -8.6      0.000      0.000
REMARK  Name = *****
REMARK  12 active torsions:
REMARK  status: ('A' for Active; 'I' for Inactive)
REMARK    1  A    between atoms: C_1  and  C_2
REMARK    2  A    between atoms: C_2  and  C_3
REMARK    3  A    between atoms: C_4  and  C_14
REMARK    4  A    between atoms: C_13  and  C_14
REMARK    5  A    between atoms: C_14  and  O_15
REMARK    6  A    between atoms: O_15  and  P_16
REMARK    7  A    between atoms: P_16  and  C_18
REMARK    8  A    between atoms: P_16  and  C_34
REMARK    9  A    between atoms: C_23  and  N_24
REMARK   10  A    between atoms: N_24  and  C_25
REMARK   11  A    between atoms: C_25  and  C_26
REMARK   12  A    between atoms: C_36  and  C_37
REMARK                            x       y       z     vdW  Elec       q    Type
REMARK                         _______ _______ _______ _____ _____    ______ ____
ROOT
ATOM      1  P   UNL     1     -22.256  17.228 -25.935  0.00  0.00    +0.282 P 
ATOM      2  O   UNL     1     -23.587  17.010 -25.266  0.00  0.00    -0.279 OA
ENDROOT
BRANCH   1   3
ATOM      3  C   UNL     1     -21.729  15.736 -26.749  0.00  0.00    +0.107 A 
ATOM      4  C   UNL     1     -22.450  15.185 -27.797  0.00  0.00    +0.045 A 
ATOM      5  C   UNL     1     -21.791  13.995 -28.233  0.00  0.00    +0.073 A 
ATOM      6  C   UNL     1     -20.675  13.864 -27.425  0.00  0.00    +0.095 A 
ATOM      7  N   UNL     1     -20.649  14.904 -26.539  0.00  0.00    -0.356 N 
ATOM      8  H   UNL     1     -19.957  15.042 -25.851  0.00  0.00    +0.166 HD
BRANCH   5   9
ATOM      9  C   UNL     1     -22.226  13.094 -29.344  0.00  0.00    +0.419 C 
ATOM     10  F   UNL     1     -23.117  13.703 -30.166  0.00  0.00    -0.166 F 
ATOM     11  F   UNL     1     -22.823  11.964 -28.882  0.00  0.00    -0.166 F 
ATOM     12  F   UNL     1     -21.183  12.697 -30.118  0.00  0.00    -0.166 F 
ENDBRANCH   5   9
ENDBRANCH   1   3
BRANCH   1  13
ATOM     13  C   UNL     1     -22.124  18.438 -27.200  0.00  0.00    +0.081 A 
ATOM     14  C   UNL     1     -23.275  18.714 -27.932  0.00  0.00    +0.126 A 
ATOM     15  N   UNL     1     -23.338  19.585 -28.962  0.00  0.00    -0.262 NA
ATOM     16  C   UNL     1     -22.188  20.202 -29.284  0.00  0.00    +0.112 A 
ATOM     17  C   UNL     1     -20.988  19.998 -28.618  0.00  0.00    +0.043 A 
ATOM     18  C   UNL     1     -20.941  19.134 -27.520  0.00  0.00    +0.043 A 
BRANCH  18  19
ATOM     19  N   UNL     1     -19.747  18.824 -26.845  0.00  0.00    -0.339 N 
ATOM     20  H   UNL     1     -19.767  18.142 -26.134  0.00  0.00    +0.146 HD
BRANCH  19  21
ATOM     21  C   UNL     1     -18.477  19.479 -27.163  0.00  0.00    +0.139 C 
BRANCH  21  22
ATOM     22  C   UNL     1     -18.303  20.766 -26.401  0.00  0.00    +0.005 A 
ATOM     23  C   UNL     1     -17.252  21.638 -26.704  0.00  0.00    +0.131 A 
ATOM     24  F   UNL     1     -16.381  21.324 -27.674  0.00  0.00    -0.205 F 
ATOM     25  C   UNL     1     -17.071  22.829 -26.011  0.00  0.00    +0.077 A 
ATOM     26  C   UNL     1     -17.953  23.152 -24.990  0.00  0.00    +0.126 A 
ATOM     27  C   UNL     1     -19.004  22.304 -24.656  0.00  0.00    +0.039 A 
ATOM     28  F   UNL     1     -17.791  24.298 -24.316  0.00  0.00    -0.205 F 
ATOM     29  C   UNL     1     -19.181  21.112 -25.360  0.00  0.00    +0.011 A 
ENDBRANCH  21  22
ENDBRANCH  19  21
ENDBRANCH  18  19
ENDBRANCH   1  13
BRANCH   1  30
ATOM     30  O   UNL     1     -21.059  17.533 -24.889  0.00  0.00    -0.311 OA
BRANCH  30  31
ATOM     31  C   UNL     1     -21.370  17.511 -23.501  0.00  0.00    +0.183 C 
BRANCH  31  34
ATOM     32  C   UNL     1     -22.439  20.373 -23.564  0.00  0.00    +0.009 C 
ATOM     33  C   UNL     1     -21.604  19.839 -22.381  0.00  0.00    -0.043 C 
ATOM     34  C   UNL     1     -20.616  18.722 -22.702  0.00  0.00    -0.028 C 
ATOM     35  N   UNL     1     -20.069  18.354 -21.297  0.00  0.00    +0.383 N 
ATOM     36  H   UNL     1     -19.214  18.877 -21.105  0.00  0.00    -0.085 HD
ATOM     37  H   UNL     1     -19.845  17.360 -21.240  0.00  0.00    -0.085 HD
ATOM     38  C   UNL     1     -21.159  18.732 -20.283  0.00  0.00    -0.078 C 
ATOM     39  C   UNL     1     -20.916  21.122 -21.825  0.00  0.00    +0.009 C 
ATOM     40  C   UNL     1     -22.282  18.985 -21.271  0.00  0.00    -0.022 C 
ENDBRANCH  31  34
BRANCH  31  41
ATOM     41  C   UNL     1     -21.073  16.050 -23.047  0.00  0.00    +0.179 A 
ATOM     42  O   UNL     1     -20.035  15.426 -23.688  0.00  0.00    -0.461 OA
ATOM     43  C   UNL     1     -19.950  14.164 -23.191  0.00  0.00    +0.199 A 
ATOM     44  C   UNL     1     -20.911  13.938 -22.231  0.00  0.00    +0.092 A 
ATOM     45  C   UNL     1     -21.638  15.140 -22.125  0.00  0.00    +0.222 A 
ATOM     46  O   UNL     1     -22.698  15.378 -21.261  0.00  0.00    -0.284 OA
ENDBRANCH  31  41
ENDBRANCH  30  31
ENDBRANCH   1  30
TORSDOF 10
ENDMDL
