MODEL 1
REMARK VINA RESULT:      -7.5      0.000      0.000
REMARK  Name = *****
REMARK  7 active torsions:
REMARK  status: ('A' for Active; 'I' for Inactive)
REMARK    1  A    between atoms: C_1  and  C_2
REMARK    2  A    between atoms: C_2  and  C_3
REMARK    3  A    between atoms: N_6  and  C_7
REMARK    4  A    between atoms: C_7  and  C_8
REMARK    5  A    between atoms: C_16  and  O_17
REMARK    6  A    between atoms: C_29  and  O_30
REMARK    7  A    between atoms: O_30  and  C_31
REMARK                            x       y       z     vdW  Elec       q    Type
REMARK                         _______ _______ _______ _____ _____    ______ ____
ROOT
ATOM      1  C   UNL     1     -23.160  18.050 -30.997  0.00  0.00    -0.007 C 
ATOM      2  C   UNL     1     -22.645  18.171 -29.555  0.00  0.00    +0.028 C 
ATOM      3  C   UNL     1     -21.155  18.551 -29.470  0.00  0.00    +0.124 C 
ATOM      4  O   UNL     1     -20.734  18.663 -28.106  0.00  0.00    -0.503 OA
ATOM      5  C   UNL     1     -20.669  17.590 -27.264  0.00  0.00    +0.161 A 
ATOM      6  C   UNL     1     -20.659  16.246 -27.642  0.00  0.00    +0.165 A 
ATOM      7  C   UNL     1     -20.575  15.230 -26.692  0.00  0.00    +0.042 A 
ATOM      8  C   UNL     1     -20.485  15.545 -25.339  0.00  0.00    +0.004 A 
ATOM      9  C   UNL     1     -20.477  16.882 -24.943  0.00  0.00    +0.012 A 
ATOM     10  F   UNL     1     -20.715  15.876 -28.930  0.00  0.00    -0.202 F 
ATOM     11  C   UNL     1     -20.572  17.918 -25.890  0.00  0.00    +0.030 A 
ATOM     12  C   UNL     1     -20.543  19.325 -25.440  0.00  0.00    +0.033 A 
ATOM     13  C   UNL     1     -19.365  20.093 -25.548  0.00  0.00    +0.139 A 
ATOM     14  C   UNL     1     -19.319  21.450 -25.212  0.00  0.00    +0.047 A 
ATOM     15  C   UNL     1     -20.463  22.073 -24.724  0.00  0.00    +0.004 A 
ATOM     16  C   UNL     1     -21.640  21.342 -24.577  0.00  0.00    +0.007 A 
ATOM     17  C   UNL     1     -21.676  19.984 -24.928  0.00  0.00    -0.006 A 
ATOM     18  C   UNL     1     -22.951  19.293 -24.740  0.00  0.00    +0.137 C 
ATOM     19 BR   UNL     1     -23.349  18.545 -23.078  0.00  0.00    -0.064 Br
ATOM     20  S   UNL     1     -24.141  19.177 -26.075  0.00  0.00    -0.050 S 
ATOM     21  S   UNL     1     -25.282  20.812 -25.696  0.00  0.00    +0.006 S 
ATOM     22  N   UNL     1     -25.699  21.200 -27.269  0.00  0.00    -0.171 NA
ATOM     23  C   UNL     1     -27.149  21.233 -27.596  0.00  0.00    +0.143 C 
ATOM     24  C   UNL     1     -27.486  20.989 -29.084  0.00  0.00    +0.139 C 
ATOM     25  C   UNL     1     -26.981  19.628 -29.568  0.00  0.00    +0.128 C 
ATOM     26  C   UNL     1     -26.079  19.778 -30.770  0.00  0.00    +0.216 C 
ATOM     27  O   UNL     1     -26.416  19.380 -31.884  0.00  0.00    -0.276 OA
ATOM     28  N   UNL     1     -24.857  20.342 -30.501  0.00  0.00    -0.315 N 
ATOM     29  C   UNL     1     -23.846  20.544 -31.513  0.00  0.00    +0.106 C 
ATOM     30  H   UNL     1     -24.660  20.621 -29.578  0.00  0.00    +0.149 HD
ATOM     31  S   UNL     1     -24.760  22.284 -27.774  0.00  0.00    +0.021 S 
ATOM     32  N   UNL     1     -20.858  19.815 -30.194  0.00  0.00    +0.404 N 
ATOM     33  H   UNL     1     -19.847  19.898 -30.295  0.00  0.00    -0.076 HD
ATOM     34  C   UNL     1     -21.385  19.778 -31.567  0.00  0.00    -0.068 C 
ATOM     35  C   UNL     1     -22.865  19.364 -31.763  0.00  0.00    -0.007 C 
ENDROOT
BRANCH   1  37
ATOM     36  C   UNL     1     -23.041  15.487 -31.060  0.00  0.00    +0.004 C 
ATOM     37  C   UNL     1     -22.560  16.795 -31.676  0.00  0.00    +0.000 C 
ENDBRANCH   1  37
BRANCH  24  38
ATOM     38  O   UNL     1     -28.922  21.027 -29.254  0.00  0.00    -0.390 OA
ATOM     39  H   UNL     1     -29.236  20.159 -29.551  0.00  0.00    +0.210 HD
ENDBRANCH  24  38
BRANCH  32  40
ATOM     40  C   UNL     1     -21.248  21.005 -29.418  0.00  0.00    -0.077 C 
ATOM     41  C   UNL     1     -20.061  21.821 -28.911  0.00  0.00    -0.017 C 
ENDBRANCH  32  40
BRANCH  13  42
ATOM     42  O   UNL     1     -18.203  19.536 -26.101  0.00  0.00    -0.427 OA
BRANCH  42  43
ATOM     43  C   UNL     1     -17.518  20.416 -26.916  0.00  0.00    +0.451 C 
ATOM     44  O   UNL     1     -16.349  20.763 -26.855  0.00  0.00    -0.254 OA
ENDBRANCH  42  43
ENDBRANCH  13  42
TORSDOF 5
ENDMDL
