MODEL 1
REMARK VINA RESULT:      -7.9      0.000      0.000
REMARK  Name = *****
REMARK  8 active torsions:
REMARK  status: ('A' for Active; 'I' for Inactive)
REMARK    1  A    between atoms: N_1  and  C_2
REMARK    2  A    between atoms: C_5  and  O_6
REMARK    3  A    between atoms: C_10  and  C_11
REMARK    4  A    between atoms: C_18  and  C_19
REMARK    5  A    between atoms: C_31  and  C_32
REMARK    6  A    between atoms: C_31  and  N_35
REMARK    7  A    between atoms: N_35  and  N_36
REMARK    8  A    between atoms: N_35  and  O_37
REMARK                            x       y       z     vdW  Elec       q    Type
REMARK                         _______ _______ _______ _____ _____    ______ ____
ROOT
ATOM      1  C   UNL     1     -23.818  22.343 -32.702  0.00  0.00    -0.021 C 
ATOM      2  C   UNL     1     -22.276  22.125 -32.272  0.00  0.00    +0.049 C 
ATOM      3  C   UNL     1     -22.169  21.774 -30.719  0.00  0.00    +0.027 C 
ATOM      4  C   UNL     1     -21.278  20.616 -30.214  0.00  0.00    +0.038 C 
ATOM      5  C   UNL     1     -21.864  19.174 -30.077  0.00  0.00    +0.169 C 
ATOM      6  C   UNL     1     -22.905  19.024 -28.920  0.00  0.00    +0.216 C 
ATOM      7  O   UNL     1     -24.129  19.452 -28.815  0.00  0.00    -0.380 OA
ATOM      8  N   UNL     1     -25.110  20.052 -29.533  0.00  0.00    -0.088 NA
ATOM      9  C   UNL     1     -25.268  20.249 -30.795  0.00  0.00    +0.118 C 
ATOM     10  C   UNL     1     -26.502  20.948 -31.295  0.00  0.00    +0.297 C 
ATOM     11  O   UNL     1     -26.112  21.403 -32.597  0.00  0.00    -0.344 OA
ATOM     12  C   UNL     1     -24.408  19.893 -31.926  0.00  0.00    +0.069 C 
ATOM     13  C   UNL     1     -24.681  18.491 -32.466  0.00  0.00    +0.014 C 
ATOM     14  C   UNL     1     -24.141  17.382 -31.545  0.00  0.00    +0.029 C 
ATOM     15  C   UNL     1     -22.611  17.322 -31.454  0.00  0.00    +0.160 C 
ATOM     16  O   UNL     1     -22.031  18.623 -31.368  0.00  0.00    -0.372 OA
ATOM     17  C   UNL     1     -21.555  21.192 -33.258  0.00  0.00    +0.030 C 
ATOM     18  C   UNL     1     -24.731  21.046 -32.859  0.00  0.00    +0.118 C 
ENDROOT
BRANCH   6  19
ATOM     19  C   UNL     1     -22.409  18.273 -27.648  0.00  0.00    +0.072 C 
ATOM     20  C   UNL     1     -21.601  17.031 -27.988  0.00  0.00    -0.036 A 
ATOM     21  C   UNL     1     -20.197  17.030 -27.921  0.00  0.00    -0.044 A 
ATOM     22  C   UNL     1     -19.484  15.880 -28.298  0.00  0.00    +0.004 A 
ATOM     23  C   UNL     1     -20.147  14.730 -28.726  0.00  0.00    +0.012 A 
ATOM     24  C   UNL     1     -21.541  14.694 -28.746  0.00  0.00    +0.055 A 
ATOM     25  C   UNL     1     -19.416  18.171 -27.310  0.00  0.00    +0.035 C 
ATOM     26  C   UNL     1     -20.202  19.468 -27.185  0.00  0.00    +0.005 C 
ATOM     27  C   UNL     1     -22.256  15.842 -28.359  0.00  0.00    +0.016 A 
ATOM     28  C   UNL     1     -21.636  19.223 -26.716  0.00  0.00    +0.013 C 
BRANCH  24  29
ATOM     29  C   UNL     1     -22.292  13.460 -29.191  0.00  0.00    +0.417 C 
ATOM     30  F   UNL     1     -22.857  12.753 -28.180  0.00  0.00    -0.166 F 
ATOM     31  F   UNL     1     -21.455  12.595 -29.838  0.00  0.00    -0.166 F 
ATOM     32  F   UNL     1     -23.281  13.745 -30.078  0.00  0.00    -0.166 F 
ENDBRANCH  24  29
ENDBRANCH   6  19
BRANCH   1  33
ATOM     33  N   UNL     1     -24.473  23.359 -31.827  0.00  0.00    +0.383 N 
ATOM     34  H   UNL     1     -25.486  23.288 -31.923  0.00  0.00    -0.089 HD
ATOM     35  H   UNL     1     -24.212  23.192 -30.856  0.00  0.00    -0.089 HD
ATOM     36  H   UNL     1     -24.170  24.292 -32.105  0.00  0.00    -0.089 HD
ENDBRANCH   1  33
BRANCH  10  37
ATOM     37  O   UNL     1     -27.510  19.981 -31.414  0.00  0.00    -0.362 OA
ATOM     38  H   UNL     1     -28.368  20.421 -31.528  0.00  0.00    +0.213 HD
ENDBRANCH  10  37
BRANCH   2  39
ATOM     39  N   UNL     1     -21.603  23.581 -32.415  0.00  0.00    -0.123 NA
BRANCH  39  40
ATOM     40  N   UNL     1     -22.037  24.226 -33.611  0.00  0.00    -0.244 NA
ATOM     41  H   UNL     1     -23.006  24.523 -33.504  0.00  0.00    +0.139 HD
ATOM     42  H   UNL     1     -21.449  25.041 -33.789  0.00  0.00    +0.139 HD
ENDBRANCH  39  40
BRANCH  39  43
ATOM     43  O   UNL     1     -21.936  24.420 -31.300  0.00  0.00    -0.297 OA
ATOM     44  H   UNL     1     -21.134  24.614 -30.790  0.00  0.00    +0.238 HD
ENDBRANCH  39  43
ENDBRANCH   2  39
TORSDOF 7
ENDMDL
