MODEL 1
REMARK VINA RESULT:      -8.7      0.000      0.000
REMARK  Name = *****
REMARK  6 active torsions:
REMARK  status: ('A' for Active; 'I' for Inactive)
REMARK    1  A    between atoms: N_11  and  C_12
REMARK    2  A    between atoms: C_29  and  C_30
REMARK    3  A    between atoms: C_33  and  C_34
REMARK    4  A    between atoms: C_34  and  N_35
REMARK    5  A    between atoms: C_34  and  C_37
REMARK    6  A    between atoms: C_37  and  O_38
REMARK                            x       y       z     vdW  Elec       q    Type
REMARK                         _______ _______ _______ _____ _____    ______ ____
ROOT
ATOM      1  O   UNL     1     -22.768  18.184 -25.210  0.00  0.00    -0.285 OA
ATOM      2  C   UNL     1     -22.554  19.216 -25.839  0.00  0.00    +0.194 C 
ATOM      3  S   UNL     1     -21.624  20.534 -25.104  0.00  0.00    -0.044 S 
ATOM      4  C   UNL     1     -20.496  20.588 -26.421  0.00  0.00    +0.185 C 
ATOM      5  N   UNL     1     -19.381  19.818 -26.284  0.00  0.00    -0.284 NA
ATOM      6  C   UNL     1     -18.781  19.223 -27.466  0.00  0.00    +0.108 C 
ATOM      7  C   UNL     1     -19.855  19.239 -28.608  0.00  0.00    +0.115 C 
ATOM      8  N   UNL     1     -20.922  18.184 -28.277  0.00  0.00    -0.275 N 
ATOM      9  C   UNL     1     -20.415  16.870 -28.433  0.00  0.00    +0.315 C 
ATOM     10  N   UNL     1     -21.190  15.777 -27.926  0.00  0.00    -0.206 N 
ATOM     11  C   UNL     1     -21.593  14.776 -28.904  0.00  0.00    +0.069 C 
ATOM     12  S   UNL     1     -21.091  13.189 -29.023  0.00  0.00    -0.039 S 
ATOM     13  C   UNL     1     -22.788  15.324 -29.591  0.00  0.00    +0.054 C 
ATOM     14  C   UNL     1     -22.596  16.344 -30.440  0.00  0.00    +0.003 C 
ATOM     15  C   UNL     1     -23.575  17.476 -30.469  0.00  0.00    +0.006 C 
ATOM     16  C   UNL     1     -22.970  18.681 -29.721  0.00  0.00    +0.023 C 
ATOM     17  O   UNL     1     -19.336  16.606 -28.945  0.00  0.00    -0.252 OA
ATOM     18  C   UNL     1     -22.418  18.409 -28.278  0.00  0.00    +0.086 C 
ATOM     19  C   UNL     1     -20.183  20.777 -28.703  0.00  0.00    +0.129 C 
ATOM     20  H   UNL     1     -18.986  19.667 -25.395  0.00  0.00    +0.125 HD
ATOM     21  N   UNL     1     -20.913  21.165 -27.492  0.00  0.00    -0.195 NA
ATOM     22  C   UNL     1     -23.048  19.393 -27.261  0.00  0.00    +0.109 C 
ENDROOT
BRANCH  10  23
ATOM     23  C   UNL     1     -21.048  15.424 -26.575  0.00  0.00    +0.112 A 
ATOM     24  N   UNL     1     -21.968  15.642 -25.574  0.00  0.00    -0.342 N 
ATOM     25  C   UNL     1     -21.517  15.149 -24.372  0.00  0.00    +0.048 A 
ATOM     26  C   UNL     1     -22.132  15.131 -23.116  0.00  0.00    +0.026 A 
ATOM     27  C   UNL     1     -21.416  14.561 -22.059  0.00  0.00    +0.002 A 
ATOM     28  C   UNL     1     -20.140  14.036 -22.255  0.00  0.00    +0.001 A 
ATOM     29  C   UNL     1     -19.544  14.061 -23.520  0.00  0.00    +0.010 A 
ATOM     30  C   UNL     1     -20.248  14.625 -24.600  0.00  0.00    +0.002 A 
ATOM     31  H   UNL     1     -22.835  16.092 -25.702  0.00  0.00    +0.167 HD
ATOM     32  C   UNL     1     -19.967  14.805 -25.984  0.00  0.00    +0.052 A 
ENDBRANCH  10  23
BRANCH  19  33
ATOM     33  C   UNL     1     -20.863  21.227 -29.980  0.00  0.00    -0.009 A 
ATOM     34  C   UNL     1     -21.881  22.178 -29.958  0.00  0.00    +0.116 A 
ATOM     35  N   UNL     1     -22.512  22.656 -31.056  0.00  0.00    -0.258 NA
ATOM     36  C   UNL     1     -22.164  22.133 -32.261  0.00  0.00    +0.063 A 
ATOM     37  C   UNL     1     -21.215  21.121 -32.375  0.00  0.00    +0.025 A 
ATOM     38  C   UNL     1     -20.566  20.669 -31.227  0.00  0.00    +0.008 A 
BRANCH  36  39
ATOM     39  C   UNL     1     -22.868  22.657 -33.509  0.00  0.00    +0.160 C 
BRANCH  39  40
ATOM     40  N   UNL     1     -24.302  22.342 -33.449  0.00  0.00    -0.147 NA
ATOM     41  H   UNL     1     -24.705  22.449 -34.380  0.00  0.00    +0.160 HD
ATOM     42  F   UNL     1     -24.510  21.055 -33.016  0.00  0.00    -0.135 F 
ENDBRANCH  39  40
BRANCH  39  43
ATOM     43  C   UNL     1     -22.643  24.175 -33.702  0.00  0.00    +0.183 C 
BRANCH  43  44
ATOM     44  O   UNL     1     -22.591  24.533 -35.087  0.00  0.00    -0.393 OA
ATOM     45  H   UNL     1     -22.065  23.878 -35.572  0.00  0.00    +0.209 HD
ENDBRANCH  43  44
ENDBRANCH  39  43
ENDBRANCH  36  39
ENDBRANCH  19  33
TORSDOF 6
ENDMDL
