MODEL 1
REMARK VINA RESULT:      -7.3      0.000      0.000
REMARK  Name = *****
REMARK  8 active torsions:
REMARK  status: ('A' for Active; 'I' for Inactive)
REMARK    1  A    between atoms: C_8  and  C_9
REMARK    2  A    between atoms: C_9  and  C_19
REMARK    3  A    between atoms: C_10  and  C_11
REMARK    4  A    between atoms: C_11  and  C_12
REMARK    5  A    between atoms: S_21  and  O_22
REMARK    6  A    between atoms: C_33  and  S_34
REMARK    7  A    between atoms: C_35  and  C_36
REMARK    8  A    between atoms: C_36  and  O_37
REMARK                            x       y       z     vdW  Elec       q    Type
REMARK                         _______ _______ _______ _____ _____    ______ ____
ROOT
ATOM      1  O   UNL     1     -24.521  19.597 -18.818  0.00  0.00    -0.291 OA
ATOM      2  C   UNL     1     -24.061  19.135 -19.861  0.00  0.00    +0.202 C 
ATOM      3  C   UNL     1     -24.815  19.242 -21.154  0.00  0.00    +0.081 C 
ATOM      4  C   UNL     1     -23.997  20.120 -22.086  0.00  0.00    +0.016 C 
ATOM      5  C   UNL     1     -22.550  19.592 -22.371  0.00  0.00    -0.000 C 
ATOM      6  C   UNL     1     -22.644  18.224 -23.245  0.00  0.00    +0.014 C 
ATOM      7  C   UNL     1     -21.536  18.086 -24.287  0.00  0.00    +0.010 C 
ATOM      8  C   UNL     1     -21.657  18.077 -25.643  0.00  0.00    +0.038 C 
ATOM      9  C   UNL     1     -20.636  18.837 -26.349  0.00  0.00    -0.008 A 
ATOM     10  C   UNL     1     -19.630  18.256 -27.173  0.00  0.00    +0.014 A 
ATOM     11  C   UNL     1     -18.800  19.213 -27.712  0.00  0.00    +0.047 A 
ATOM     12  S   UNL     1     -19.236  20.795 -27.234  0.00  0.00    -0.082 S 
ATOM     13  C   UNL     1     -20.561  20.238 -26.288  0.00  0.00    +0.070 A 
ATOM     14  N   UNL     1     -21.354  21.173 -25.619  0.00  0.00    -0.332 N 
ATOM     15  C   UNL     1     -22.170  20.798 -24.556  0.00  0.00    +0.110 C 
ATOM     16  H   UNL     1     -21.336  22.114 -25.906  0.00  0.00    +0.147 HD
ATOM     17  C   UNL     1     -21.872  20.732 -23.240  0.00  0.00    +0.056 C 
ATOM     18  C   UNL     1     -21.828  19.305 -20.973  0.00  0.00    +0.099 C 
ATOM     19  C   UNL     1     -22.699  18.478 -19.992  0.00  0.00    +0.311 C 
ATOM     20  F   UNL     1     -22.837  17.208 -20.465  0.00  0.00    -0.197 F 
ATOM     21  F   UNL     1     -22.083  18.371 -18.789  0.00  0.00    -0.197 F 
ENDROOT
BRANCH   8  22
ATOM     22  C   UNL     1     -22.871  17.667 -26.405  0.00  0.00    -0.032 C 
ATOM     23  C   UNL     1     -23.272  16.373 -26.472  0.00  0.00    -0.020 C 
BRANCH  22  24
ATOM     24  C   UNL     1     -23.576  18.672 -27.201  0.00  0.00    +0.130 C 
ATOM     25  C   UNL     1     -23.560  18.868 -28.659  0.00  0.00    +0.116 C 
ATOM     26  I   UNL     1     -22.419  17.842 -30.025  0.00  0.00    -0.024 I 
ATOM     27  N   UNL     1     -24.310  19.913 -29.077  0.00  0.00    -0.197 NA
ATOM     28  S   UNL     1     -24.975  20.596 -27.754  0.00  0.00    +0.008 S 
ATOM     29  H   UNL     1     -26.310  20.849 -27.713  0.00  0.00    +0.149 HD
ATOM     30  N   UNL     1     -24.327  19.693 -26.616  0.00  0.00    -0.227 NA
ATOM     31  H   UNL     1     -24.437  19.833 -25.648  0.00  0.00    +0.138 HD
BRANCH  28  32
ATOM     32  O   UNL     1     -23.824  21.719 -27.679  0.00  0.00    -0.321 OA
ATOM     33  H   UNL     1     -22.967  21.292 -27.520  0.00  0.00    +0.228 HD
ENDBRANCH  28  32
ENDBRANCH  22  24
BRANCH  23  34
ATOM     34  C   UNL     1     -22.577  15.122 -25.982  0.00  0.00    +0.065 C 
BRANCH  34  35
ATOM     35  C   UNL     1     -21.768  14.479 -27.081  0.00  0.00    -0.008 A 
ATOM     36  C   UNL     1     -22.386  13.789 -28.131  0.00  0.00    +0.007 A 
ATOM     37  C   UNL     1     -21.613  13.210 -29.142  0.00  0.00    +0.000 A 
ATOM     38  C   UNL     1     -20.222  13.316 -29.114  0.00  0.00    +0.003 A 
ATOM     39  C   UNL     1     -19.598  14.004 -28.077  0.00  0.00    +0.038 A 
ATOM     40  C   UNL     1     -20.371  14.578 -27.074  0.00  0.00    +0.127 A 
ATOM     41  F   UNL     1     -19.759  15.259 -26.092  0.00  0.00    -0.205 F 
ENDBRANCH  34  35
ENDBRANCH  23  34
ENDBRANCH   8  22
BRANCH  17  42
ATOM     42  S   UNL     1     -20.554  21.708 -22.650  0.00  0.00    -0.168 S 
ATOM     43  H   UNL     1     -20.605  21.767 -21.292  0.00  0.00    +0.102 HD
ENDBRANCH  17  42
BRANCH  18  44
ATOM     44  C   UNL     1     -20.458  18.617 -21.117  0.00  0.00    +0.166 C 
BRANCH  44  45
ATOM     45  O   UNL     1     -19.411  19.455 -20.659  0.00  0.00    -0.395 OA
ATOM     46  H   UNL     1     -19.055  19.965 -21.403  0.00  0.00    +0.209 HD
ENDBRANCH  44  45
ENDBRANCH  18  44
TORSDOF 8
ENDMDL
