MODEL 1
REMARK VINA RESULT:      -8.6      0.000      0.000
REMARK  Name = *****
REMARK  9 active torsions:
REMARK  status: ('A' for Active; 'I' for Inactive)
REMARK    1  A    between atoms: C_5  and  C_34
REMARK    2  A    between atoms: C_7  and  S_8
REMARK    3  A    between atoms: S_8  and  C_9
REMARK    4  A    between atoms: C_10  and  C_11
REMARK    5  A    between atoms: C_34  and  C_35
REMARK    6  A    between atoms: C_34  and  C_36
REMARK    7  A    between atoms: C_34  and  N_38
REMARK    8  A    between atoms: C_36  and  O_37
REMARK    9  A    between atoms: N_38  and  O_39
REMARK                            x       y       z     vdW  Elec       q    Type
REMARK                         _______ _______ _______ _____ _____    ______ ____
ROOT
ATOM      1  O   UNL     1     -19.382  17.062 -25.281  0.00  0.00    -0.295 OA
ATOM      2  C   UNL     1     -20.449  16.555 -25.659  0.00  0.00    +0.161 C 
ATOM      3  C   UNL     1     -20.624  15.040 -25.421  0.00  0.00    +0.091 C 
ATOM      4  C   UNL     1     -20.628  14.409 -23.979  0.00  0.00    +0.177 C 
ATOM      5  F   UNL     1     -19.800  13.310 -24.070  0.00  0.00    -0.245 F 
ATOM      6  C   UNL     1     -20.174  15.176 -22.717  0.00  0.00    +0.040 C 
ATOM      7  C   UNL     1     -21.230  16.080 -22.016  0.00  0.00    -0.010 C 
ATOM      8  C   UNL     1     -22.126  15.446 -20.929  0.00  0.00    -0.078 C 
ATOM      9  N   UNL     1     -23.248  16.249 -20.388  0.00  0.00    +0.379 N 
ATOM     10  H   UNL     1     -23.179  16.066 -19.387  0.00  0.00    -0.086 HD
ATOM     11  H   UNL     1     -24.083  15.949 -20.891  0.00  0.00    -0.086 HD
ATOM     12  C   UNL     1     -23.248  17.722 -20.433  0.00  0.00    -0.083 C 
ATOM     13  C   UNL     1     -24.234  18.365 -21.469  0.00  0.00    -0.017 C 
ATOM     14  C   UNL     1     -23.792  19.576 -22.333  0.00  0.00    +0.023 C 
ATOM     15  C   UNL     1     -22.641  19.545 -23.366  0.00  0.00    +0.107 C 
ATOM     16  C   UNL     1     -21.294  19.027 -22.906  0.00  0.00    +0.129 C 
ATOM     17  N   UNL     1     -21.513  17.805 -23.691  0.00  0.00    -0.224 NA
ATOM     18  N   UNL     1     -22.514  18.455 -24.364  0.00  0.00    -0.255 N 
ATOM     19  C   UNL     1     -22.457  18.461 -25.741  0.00  0.00    +0.090 C 
ATOM     20  S   UNL     1     -23.502  19.488 -26.602  0.00  0.00    -0.037 S 
ATOM     21  C   UNL     1     -22.133  16.677 -23.051  0.00  0.00    +0.107 C 
ATOM     22  C   UNL     1     -21.744  14.411 -26.252  0.00  0.00    +0.019 C 
ATOM     23  C   UNL     1     -21.973  15.020 -27.642  0.00  0.00    +0.016 C 
ATOM     24  C   UNL     1     -22.347  16.505 -27.442  0.00  0.00    +0.037 C 
ATOM     25  C   UNL     1     -21.484  17.409 -26.523  0.00  0.00    +0.125 C 
ENDROOT
BRANCH  23  26
ATOM     26  C   UNL     1     -20.982  14.622 -28.806  0.00  0.00    +0.067 C 
ATOM     27  C   UNL     1     -19.515  14.436 -28.404  0.00  0.00    +0.032 C 
BRANCH  26  28
ATOM     28  N   UNL     1     -20.965  15.750 -29.845  0.00  0.00    -0.196 NA
ATOM     29  H   UNL     1     -20.057  15.754 -30.309  0.00  0.00    +0.154 HD
BRANCH  28  30
ATOM     30  O   UNL     1     -21.992  15.595 -30.842  0.00  0.00    -0.314 OA
ATOM     31  H   UNL     1     -22.863  15.693 -30.427  0.00  0.00    +0.236 HD
ENDBRANCH  28  30
ENDBRANCH  26  28
BRANCH  26  32
ATOM     32  C   UNL     1     -21.465  13.332 -29.553  0.00  0.00    +0.180 C 
BRANCH  32  33
ATOM     33  O   UNL     1     -22.863  13.144 -29.416  0.00  0.00    -0.393 OA
ATOM     34  H   UNL     1     -23.150  13.467 -28.548  0.00  0.00    +0.209 HD
ENDBRANCH  32  33
ENDBRANCH  26  32
ENDBRANCH  23  26
BRANCH  25  35
ATOM     35  S   UNL     1     -20.352  18.495 -27.513  0.00  0.00    -0.112 S 
BRANCH  35  36
ATOM     36  C   UNL     1     -20.275  20.092 -26.890  0.00  0.00    +0.042 C 
ATOM     37  C   UNL     1     -19.191  20.400 -26.167  0.00  0.00    +0.016 C 
BRANCH  37  38
ATOM     38  C   UNL     1     -19.036  21.699 -25.490  0.00  0.00    -0.006 A 
ATOM     39  C   UNL     1     -17.908  22.517 -25.685  0.00  0.00    +0.048 A 
ATOM     40 CL   UNL     1     -16.668  22.098 -26.819  0.00  0.00    -0.083 Cl
ATOM     41  C   UNL     1     -17.775  23.728 -24.997  0.00  0.00    +0.020 A 
ATOM     42  C   UNL     1     -18.765  24.133 -24.102  0.00  0.00    +0.001 A 
ATOM     43  C   UNL     1     -19.883  23.330 -23.893  0.00  0.00    +0.001 A 
ATOM     44  C   UNL     1     -20.016  22.119 -24.577  0.00  0.00    +0.009 A 
ENDBRANCH  37  38
ENDBRANCH  35  36
ENDBRANCH  25  35
TORSDOF 8
ENDMDL
