MODEL 1
REMARK VINA RESULT:      -9.2      0.000      0.000
REMARK  Name = *****
REMARK  7 active torsions:
REMARK  status: ('A' for Active; 'I' for Inactive)
REMARK    1  A    between atoms: C_1  and  C_2
REMARK    2  A    between atoms: C_2  and  C_3
REMARK    3  A    between atoms: C_2  and  N_4
REMARK    4  A    between atoms: C_7  and  C_8
REMARK    5  A    between atoms: C_8  and  C_9
REMARK    6  A    between atoms: C_14  and  C_15
REMARK    7  A    between atoms: C_39  and  C_40
REMARK                            x       y       z     vdW  Elec       q    Type
REMARK                         _______ _______ _______ _____ _____    ______ ____
ROOT
ATOM      1  N   UNL     1     -21.671  18.362 -29.715  0.00  0.00    -0.284 NA
ATOM      2  C   UNL     1     -21.038  17.105 -29.767  0.00  0.00    +0.088 C 
ATOM      3  C   UNL     1     -21.605  15.885 -29.924  0.00  0.00    +0.037 C 
ATOM      4  C   UNL     1     -21.005  14.910 -29.058  0.00  0.00    +0.025 A 
ATOM      5  C   UNL     1     -19.732  14.476 -28.740  0.00  0.00    +0.023 A 
ATOM      6  C   UNL     1     -19.757  14.141 -27.347  0.00  0.00    +0.023 A 
ATOM      7  C   UNL     1     -21.040  14.398 -26.900  0.00  0.00    +0.025 A 
ATOM      8  C   UNL     1     -21.652  14.610 -25.552  0.00  0.00    +0.148 C 
ATOM      9  C   UNL     1     -21.304  15.971 -24.924  0.00  0.00    +0.219 C 
ATOM     10  O   UNL     1     -20.488  16.063 -24.002  0.00  0.00    -0.275 OA
ATOM     11  N   UNL     1     -21.972  17.122 -25.301  0.00  0.00    -0.305 N 
ATOM     12  C   UNL     1     -22.192  17.466 -26.679  0.00  0.00    +0.124 C 
ATOM     13  C   UNL     1     -21.079  18.318 -27.262  0.00  0.00    -0.028 C 
ATOM     14  C   UNL     1     -19.829  18.485 -26.776  0.00  0.00    -0.019 C 
ATOM     15  C   UNL     1     -23.411  18.294 -26.914  0.00  0.00    -0.003 C 
ATOM     16  C   UNL     1     -23.187  19.134 -27.942  0.00  0.00    -0.006 C 
ATOM     17  H   UNL     1     -22.310  17.726 -24.602  0.00  0.00    +0.150 HD
ATOM     18  N   UNL     1     -21.811  14.431 -28.044  0.00  0.00    -0.361 N 
ATOM     19  H   UNL     1     -22.756  14.164 -28.123  0.00  0.00    +0.165 HD
ATOM     20  C   UNL     1     -22.984  15.744 -30.526  0.00  0.00    +0.020 C 
ATOM     21  C   UNL     1     -21.747  19.089 -28.405  0.00  0.00    +0.108 C 
ENDROOT
BRANCH   1  23
ATOM     22  C   UNL     1     -22.975  19.361 -31.589  0.00  0.00    +0.024 C 
ATOM     23  C   UNL     1     -21.620  19.276 -30.889  0.00  0.00    +0.052 C 
ATOM     24  C   UNL     1     -21.125  20.668 -30.502  0.00  0.00    +0.024 C 
ENDBRANCH   1  23
BRANCH  14  25
ATOM     25  C   UNL     1     -18.786  19.438 -27.294  0.00  0.00    +0.072 C 
BRANCH  25  26
ATOM     26  C   UNL     1     -18.592  20.654 -26.460  0.00  0.00    +0.076 C 
ATOM     27  C   UNL     1     -19.344  21.324 -25.595  0.00  0.00    +0.140 C 
ATOM     28  N   UNL     1     -20.615  21.192 -25.137  0.00  0.00    -0.274 N 
ATOM     29  C   UNL     1     -21.006  22.140 -24.223  0.00  0.00    +0.280 C 
ATOM     30  O   UNL     1     -22.130  22.072 -23.824  0.00  0.00    -0.270 OA
ATOM     31  C   UNL     1     -20.180  23.140 -23.799  0.00  0.00    +0.314 C 
ATOM     32  N   UNL     1     -18.870  23.330 -24.275  0.00  0.00    -0.051 NA
ATOM     33  H   UNL     1     -21.213  20.470 -25.438  0.00  0.00    +0.155 HD
ATOM     34  C   UNL     1     -18.499  22.437 -25.133  0.00  0.00    +0.378 C 
ATOM     35  N   UNL     1     -17.327  22.474 -25.666  0.00  0.00    +0.037 NA
ATOM     36  C   UNL     1     -17.302  21.399 -26.518  0.00  0.00    +0.373 C 
ATOM     37  O   UNL     1     -16.381  21.079 -27.250  0.00  0.00    -0.238 OA
BRANCH  31  38
ATOM     38  C   UNL     1     -20.637  24.126 -22.793  0.00  0.00    +0.054 A 
ATOM     39  C   UNL     1     -20.881  23.750 -21.467  0.00  0.00    +0.132 A 
ATOM     40  C   UNL     1     -21.305  24.678 -20.519  0.00  0.00    +0.039 A 
ATOM     41  C   UNL     1     -21.480  26.012 -20.887  0.00  0.00    +0.003 A 
ATOM     42  C   UNL     1     -21.222  26.409 -22.200  0.00  0.00    +0.001 A 
ATOM     43  F   UNL     1     -20.684  22.481 -21.076  0.00  0.00    -0.205 F 
ATOM     44  C   UNL     1     -20.798  25.473 -23.148  0.00  0.00    +0.012 A 
ENDBRANCH  31  38
ENDBRANCH  25  26
ENDBRANCH  14  25
TORSDOF 4
ENDMDL
