MODEL 1
REMARK VINA RESULT:      -8.9      0.000      0.000
REMARK  Name = *****
REMARK  4 active torsions:
REMARK  status: ('A' for Active; 'I' for Inactive)
REMARK    1  A    between atoms: N_1  and  C_2
REMARK    2  A    between atoms: C_4  and  O_5
REMARK    3  A    between atoms: C_20  and  C_21
REMARK    4  A    between atoms: C_21  and  C_22
REMARK                            x       y       z     vdW  Elec       q    Type
REMARK                         _______ _______ _______ _____ _____    ______ ____
ROOT
ATOM      1  C   UNL     1     -20.509  21.143 -28.306  0.00  0.00    -0.052 C 
ATOM      2  C   UNL     1     -20.562  21.390 -29.868  0.00  0.00    +0.020 C 
ATOM      3  C   UNL     1     -21.433  20.376 -30.618  0.00  0.00    +0.071 C 
ATOM      4  C   UNL     1     -22.016  20.459 -32.096  0.00  0.00    +0.030 C 
ATOM      5  C   UNL     1     -22.419  21.879 -32.512  0.00  0.00    +0.007 C 
ATOM      6  C   UNL     1     -23.627  22.349 -31.702  0.00  0.00    +0.001 C 
ATOM      7  C   UNL     1     -23.665  21.766 -30.289  0.00  0.00    +0.007 C 
ATOM      8  C   UNL     1     -23.226  19.546 -31.567  0.00  0.00    +0.047 C 
ATOM      9  C   UNL     1     -22.994  18.027 -31.349  0.00  0.00    +0.020 A 
ATOM     10  N   UNL     1     -22.544  17.507 -30.162  0.00  0.00    -0.360 N 
ATOM     11  H   UNL     1     -22.453  18.030 -29.334  0.00  0.00    +0.165 HD
ATOM     12  C   UNL     1     -22.235  16.185 -30.264  0.00  0.00    +0.030 A 
ATOM     13  C   UNL     1     -21.516  15.504 -29.124  0.00  0.00    +0.139 C 
ATOM     14  N   UNL     1     -20.798  16.388 -28.171  0.00  0.00    -0.279 NA
ATOM     15  C   UNL     1     -19.615  17.083 -28.713  0.00  0.00    +0.155 C 
ATOM     16  S   UNL     1     -19.138  18.671 -27.901  0.00  0.00    -0.135 S 
ATOM     17  C   UNL     1     -21.324  16.884 -27.053  0.00  0.00    +0.056 C 
ATOM     18  C   UNL     1     -21.881  16.982 -25.878  0.00  0.00    +0.011 C 
ATOM     19  C   UNL     1     -22.278  17.933 -26.902  0.00  0.00    +0.062 C 
ATOM     20  C   UNL     1     -21.754  19.274 -27.176  0.00  0.00    +0.166 C 
ATOM     21  F   UNL     1     -22.706  20.236 -27.019  0.00  0.00    -0.237 F 
ATOM     22  C   UNL     1     -22.700  15.793 -31.507  0.00  0.00    +0.024 A 
ATOM     23  C   UNL     1     -23.201  16.957 -32.187  0.00  0.00    +0.023 A 
ATOM     24  C   UNL     1     -22.998  20.380 -30.252  0.00  0.00    +0.030 C 
ATOM     25  C   UNL     1     -20.598  19.682 -27.773  0.00  0.00    +0.058 C 
ENDROOT
BRANCH   1  26
ATOM     26  N   UNL     1     -19.340  21.847 -27.743  0.00  0.00    +0.381 N 
ATOM     27  H   UNL     1     -19.082  21.419 -26.853  0.00  0.00    -0.090 HD
ATOM     28  H   UNL     1     -18.556  21.779 -28.393  0.00  0.00    -0.090 HD
ATOM     29  H   UNL     1     -19.574  22.828 -27.594  0.00  0.00    -0.090 HD
ENDBRANCH   1  26
BRANCH   3  30
ATOM     30  O   UNL     1     -20.656  19.163 -30.505  0.00  0.00    -0.388 OA
ATOM     31  H   UNL     1     -21.215  18.452 -30.154  0.00  0.00    +0.210 HD
ENDBRANCH   3  30
BRANCH  18  32
ATOM     32  C   UNL     1     -22.527  15.943 -25.057  0.00  0.00    +0.046 C 
BRANCH  32  33
ATOM     33  C   UNL     1     -21.679  15.356 -23.950  0.00  0.00    -0.028 A 
ATOM     34  C   UNL     1     -20.626  14.458 -24.187  0.00  0.00    +0.044 A 
ATOM     35 CL   UNL     1     -20.224  13.916 -25.777  0.00  0.00    -0.083 Cl
ATOM     36  C   UNL     1     -19.855  13.971 -23.126  0.00  0.00    +0.020 A 
ATOM     37  C   UNL     1     -20.126  14.368 -21.818  0.00  0.00    +0.001 A 
ATOM     38  C   UNL     1     -21.172  15.252 -21.566  0.00  0.00    +0.000 A 
ATOM     39  C   UNL     1     -21.941  15.740 -22.622  0.00  0.00    +0.005 A 
ENDBRANCH  32  33
ENDBRANCH  18  32
TORSDOF 4
ENDMDL
